 INFO
nunit      1    1    1
unit   cell
celltype   convcell
shape   parapipedal
 END_INFO
 DIM-GROUP
           3           9
 PRIMVEC
   11.6909748500    0.0000000000    0.0000000000
   -5.8454874250   10.1246812150    0.0000000000
    0.0000000000    0.0000000000   14.0432688100
 CONVVEC
   11.6909748500    0.0000000000    0.0000000000
   -5.8454874250   10.1246812150    0.0000000000
    0.0000000000    0.0000000000   14.0432688100
 PRIMCOORD
          71           1
 74     -0.5428905890     1.6477792120     3.2200392640
 74      2.7198217800     1.7390444700     2.8337284370
 74      5.5918089380     1.8359870260     2.9946211380
 74      8.2973260940     1.4641946630     3.6620263400
 74     -1.5797289720     4.0856380240     3.9920757620
 74      1.5089971440     4.1330056580     3.7141168780
 74      4.7405781610     4.3822676680     3.2549227800
 74      7.4504442210     4.3467416820     3.0661811630
 74     -2.7775600120     7.1480869860     3.7514441060
 74     -0.0079823800     6.4989794560     3.8517425060
 74      3.0840547220     6.5181337880     3.7334321700
 74      6.3503481070     6.8553192160     3.6152444720
 74     -4.3193473780     9.6480358230     3.4086189550
 74     -1.3360800030     9.5211100760     3.3674593370
 74      1.3323448080     8.9864720020     3.4017013000
 74      4.3194074270     9.4188642890     3.5065679190
 74      1.5660476410     0.6998099670    10.6912546680
 74      4.5973002130     0.6698246710    10.7811777810
 74      7.1615435920     1.1434224580    10.9484821930
 74     10.2342923800     0.7967807010    10.8184753520
 74      0.1322016960     3.3394652990    10.2829300740
 74      2.6511962490     3.3490911290    10.3244991890
 74      5.5061527560     3.3348790840    10.5729719420
 74      8.7916930260     3.5287348590    10.6257691710
 74     -1.3090656260     5.7089198120    10.5204451180
 74      1.4764433210     5.8628097490    10.0656271070
 74      4.2023983510     6.0100892940    10.2100905140
 74      7.0422320980     5.5894455790    10.6092772170
 74     -2.6409032440     8.0799014450    10.9272102630
 74     -0.0122596720     8.4468185710    10.7719718140
 74      3.0960088990     8.6143363900    10.5040666170
 74      5.8273381290     8.4335827820    10.7182492010
 34     -0.0923250320     1.3226838700     8.7714148390
 34      3.2906281080     1.3094466770     8.8184346660
 34     -1.5217258170     4.0811304040     8.5786085790
 52      4.1070197890     4.1311950250     8.2307657560
 34      7.1817792580     3.6680874600     8.7838701470
 34     -0.3268689230     7.1160273950     8.6725483310
 34      2.8702184690     7.1875184330     8.4337593430
 34      6.0302146520     6.8520810590     8.6818576350
 34     -3.8762149280     8.8988087880     9.0370880720
 34      1.4954435330     9.8754636710     8.9733833900
 34      0.8935432780     1.1755698530     1.2678895170
 34      4.3060175480     0.7097748550     1.1813055610
 34      2.8816832240     4.8461357460     1.6839921210
 52      6.0659750910     3.5358097460     0.8968761050
 34      9.2614603460     2.7028947580     1.8119361270
 34     -0.1543940970     4.8124696760     2.0116674410
 34      8.0213674080     6.3213114750     1.6033860820
 34     -0.4073538500     7.9165582300     1.7675214800
 34      2.9470835830     8.2265646970     1.6939167990
 34      5.9093972450     8.4139589400     1.7452398480
 34      0.0859802900     2.0055163630    12.3779019040
 34      3.2136577960     1.7470507520    12.4089461430
 34      8.7786866170     1.9882748960    12.6528407900
 34      3.7079770910     4.5324335410    12.2167203610
 34     -2.9068432790     5.5383266330    12.4270310380
 34      0.4278381570     6.3302595490    12.2535814450
 34      5.5446570160     6.6126601780    12.3756658850
 52     -4.1555759150     9.0613655010    12.8652719480
 34      1.6320058660     9.2339017000    12.5174966050
 34      3.8384826190     2.7289337430     4.8886772900
 34      6.1639613810     0.4891466100     5.0739205110
 34      0.0198077260     2.7133557060     5.4053791120
 34      8.0630600670     3.3064728980     5.3283533710
 52     -1.7340529140     6.0162678240     5.9178885230
 34      1.6313623860     5.7101449860     5.6379923700
 34      4.9158293990     5.7908774470     5.3555149950
 34     -2.7536611880     9.1486704390     5.3886442650
 34      2.8181825290     8.5596195450     5.3511373710
 34      5.9673145190     8.8738226530     5.3355440980
 CONVCOORD
          71           1
 74     -0.5428905890     1.6477792120     3.2200392640
 74      2.7198217800     1.7390444700     2.8337284370
 74      5.5918089380     1.8359870260     2.9946211380
 74      8.2973260940     1.4641946630     3.6620263400
 74     -1.5797289720     4.0856380240     3.9920757620
 74      1.5089971440     4.1330056580     3.7141168780
 74      4.7405781610     4.3822676680     3.2549227800
 74      7.4504442210     4.3467416820     3.0661811630
 74     -2.7775600120     7.1480869860     3.7514441060
 74     -0.0079823800     6.4989794560     3.8517425060
 74      3.0840547220     6.5181337880     3.7334321700
 74      6.3503481070     6.8553192160     3.6152444720
 74     -4.3193473780     9.6480358230     3.4086189550
 74     -1.3360800030     9.5211100760     3.3674593370
 74      1.3323448080     8.9864720020     3.4017013000
 74      4.3194074270     9.4188642890     3.5065679190
 74      1.5660476410     0.6998099670    10.6912546680
 74      4.5973002130     0.6698246710    10.7811777810
 74      7.1615435920     1.1434224580    10.9484821930
 74     10.2342923800     0.7967807010    10.8184753520
 74      0.1322016960     3.3394652990    10.2829300740
 74      2.6511962490     3.3490911290    10.3244991890
 74      5.5061527560     3.3348790840    10.5729719420
 74      8.7916930260     3.5287348590    10.6257691710
 74     -1.3090656260     5.7089198120    10.5204451180
 74      1.4764433210     5.8628097490    10.0656271070
 74      4.2023983510     6.0100892940    10.2100905140
 74      7.0422320980     5.5894455790    10.6092772170
 74     -2.6409032440     8.0799014450    10.9272102630
 74     -0.0122596720     8.4468185710    10.7719718140
 74      3.0960088990     8.6143363900    10.5040666170
 74      5.8273381290     8.4335827820    10.7182492010
 34     -0.0923250320     1.3226838700     8.7714148390
 34      3.2906281080     1.3094466770     8.8184346660
 34     -1.5217258170     4.0811304040     8.5786085790
 52      4.1070197890     4.1311950250     8.2307657560
 34      7.1817792580     3.6680874600     8.7838701470
 34     -0.3268689230     7.1160273950     8.6725483310
 34      2.8702184690     7.1875184330     8.4337593430
 34      6.0302146520     6.8520810590     8.6818576350
 34     -3.8762149280     8.8988087880     9.0370880720
 34      1.4954435330     9.8754636710     8.9733833900
 34      0.8935432780     1.1755698530     1.2678895170
 34      4.3060175480     0.7097748550     1.1813055610
 34      2.8816832240     4.8461357460     1.6839921210
 52      6.0659750910     3.5358097460     0.8968761050
 34      9.2614603460     2.7028947580     1.8119361270
 34     -0.1543940970     4.8124696760     2.0116674410
 34      8.0213674080     6.3213114750     1.6033860820
 34     -0.4073538500     7.9165582300     1.7675214800
 34      2.9470835830     8.2265646970     1.6939167990
 34      5.9093972450     8.4139589400     1.7452398480
 34      0.0859802900     2.0055163630    12.3779019040
 34      3.2136577960     1.7470507520    12.4089461430
 34      8.7786866170     1.9882748960    12.6528407900
 34      3.7079770910     4.5324335410    12.2167203610
 34     -2.9068432790     5.5383266330    12.4270310380
 34      0.4278381570     6.3302595490    12.2535814450
 34      5.5446570160     6.6126601780    12.3756658850
 52     -4.1555759150     9.0613655010    12.8652719480
 34      1.6320058660     9.2339017000    12.5174966050
 34      3.8384826190     2.7289337430     4.8886772900
 34      6.1639613810     0.4891466100     5.0739205110
 34      0.0198077260     2.7133557060     5.4053791120
 34      8.0630600670     3.3064728980     5.3283533710
 52     -1.7340529140     6.0162678240     5.9178885230
 34      1.6313623860     5.7101449860     5.6379923700
 34      4.9158293990     5.7908774470     5.3555149950
 34     -2.7536611880     9.1486704390     5.3886442650
 34      2.8181825290     8.5596195450     5.3511373710
 34      5.9673145190     8.8738226530     5.3355440980
 RECIP-PRIMVEC
    0.0855360663    0.0493842709   -0.0000000000

    0.0000000000    0.0987685418    0.0000000000

    0.0000000000   -0.0000000000    0.0712084924

 RECIP-CONVVEC
    0.0855360663    0.0493842709   -0.0000000000

    0.0000000000    0.0987685418    0.0000000000

    0.0000000000   -0.0000000000    0.0712084924

 WIGNER-SEITZ-PRIMCELL
           4
 -0.5845487E+01 -0.3374894E+01  0.7021634E+01  -0.5000000E+00 -0.8660254E+00  0.1124406E-15
 -0.5845487E+01 -0.3374894E+01 -0.7021634E+01  -0.5000000E+00 -0.8660254E+00  0.1124406E-15
 -0.0000000E+00 -0.6749787E+01 -0.7021634E+01  -0.5000000E+00 -0.8660254E+00  0.1124406E-15
  0.2188567E-14 -0.6749787E+01  0.7021634E+01  -0.5000000E+00 -0.8660254E+00  0.1124406E-15
           4
 -0.5845487E+01  0.3374894E+01  0.7021634E+01  -0.1000000E+01  0.0000000E+00  0.0000000E+00
 -0.5845487E+01  0.3374894E+01 -0.7021634E+01  -0.1000000E+01  0.0000000E+00  0.0000000E+00
 -0.5845487E+01 -0.3374894E+01 -0.7021634E+01  -0.1000000E+01  0.0000000E+00  0.0000000E+00
 -0.5845487E+01 -0.3374894E+01  0.7021634E+01  -0.1000000E+01  0.0000000E+00  0.0000000E+00
           4
 -0.1094284E-14 -0.6749787E+01  0.7021634E+01   0.5000000E+00 -0.8660254E+00 -0.0000000E+00
 -0.0000000E+00 -0.6749787E+01 -0.7021634E+01   0.5000000E+00 -0.8660254E+00 -0.0000000E+00
  0.5845487E+01 -0.3374894E+01 -0.7021634E+01   0.5000000E+00 -0.8660254E+00 -0.0000000E+00
  0.5845487E+01 -0.3374894E+01  0.7021634E+01   0.5000000E+00 -0.8660254E+00 -0.0000000E+00
           6
 -0.5845487E+01 -0.3374894E+01 -0.7021634E+01   0.0000000E+00  0.0000000E+00 -0.1000000E+01
 -0.5845487E+01  0.3374894E+01 -0.7021634E+01   0.0000000E+00  0.0000000E+00 -0.1000000E+01
  0.0000000E+00  0.6749787E+01 -0.7021634E+01   0.0000000E+00  0.0000000E+00 -0.1000000E+01
  0.5845487E+01  0.3374894E+01 -0.7021634E+01   0.0000000E+00  0.0000000E+00 -0.1000000E+01
  0.5845487E+01 -0.3374894E+01 -0.7021634E+01   0.0000000E+00  0.0000000E+00 -0.1000000E+01
 -0.0000000E+00 -0.6749787E+01 -0.7021634E+01   0.0000000E+00  0.0000000E+00 -0.1000000E+01
           6
 -0.2188567E-14 -0.6749787E+01  0.7021634E+01  -0.0000000E+00 -0.0000000E+00  0.1000000E+01
  0.5845487E+01 -0.3374894E+01  0.7021634E+01  -0.0000000E+00 -0.0000000E+00  0.1000000E+01
  0.5845487E+01  0.3374894E+01  0.7021634E+01  -0.0000000E+00 -0.0000000E+00  0.1000000E+01
 -0.1094284E-14  0.6749787E+01  0.7021634E+01  -0.0000000E+00 -0.0000000E+00  0.1000000E+01
 -0.5845487E+01  0.3374894E+01  0.7021634E+01  -0.0000000E+00 -0.0000000E+00  0.1000000E+01
 -0.5845487E+01 -0.3374894E+01  0.7021634E+01  -0.0000000E+00 -0.0000000E+00  0.1000000E+01
           4
 -0.5845487E+01  0.3374894E+01  0.7021634E+01  -0.5000000E+00  0.8660254E+00  0.0000000E+00
 -0.0000000E+00  0.6749787E+01  0.7021634E+01  -0.5000000E+00  0.8660254E+00  0.0000000E+00
 -0.0000000E+00  0.6749787E+01 -0.7021634E+01  -0.5000000E+00  0.8660254E+00  0.0000000E+00
 -0.5845487E+01  0.3374894E+01 -0.7021634E+01  -0.5000000E+00  0.8660254E+00  0.0000000E+00
           4
  0.5845487E+01 -0.3374894E+01 -0.7021634E+01   0.1000000E+01 -0.0000000E+00 -0.0000000E+00
  0.5845487E+01  0.3374894E+01 -0.7021634E+01   0.1000000E+01 -0.0000000E+00 -0.0000000E+00
  0.5845487E+01  0.3374894E+01  0.7021634E+01   0.1000000E+01 -0.0000000E+00 -0.0000000E+00
  0.5845487E+01 -0.3374894E+01  0.7021634E+01   0.1000000E+01 -0.0000000E+00 -0.0000000E+00
           4
  0.2188567E-14  0.6749787E+01  0.7021634E+01   0.5000000E+00  0.8660254E+00  0.1756864E-15
  0.5845487E+01  0.3374894E+01  0.7021634E+01   0.5000000E+00  0.8660254E+00  0.1756864E-15
  0.5845487E+01  0.3374894E+01 -0.7021634E+01   0.5000000E+00  0.8660254E+00  0.1756864E-15
 -0.0000000E+00  0.6749787E+01 -0.7021634E+01   0.5000000E+00  0.8660254E+00  0.1756864E-15
 WIGNER-SEITZ-PRIMCELL_END
 WIGNER-SEITZ-CONVCELL
           4
 -0.5845487E+01 -0.3374894E+01  0.7021634E+01  -0.5000000E+00 -0.8660254E+00  0.1124406E-15
 -0.5845487E+01 -0.3374894E+01 -0.7021634E+01  -0.5000000E+00 -0.8660254E+00  0.1124406E-15
 -0.0000000E+00 -0.6749787E+01 -0.7021634E+01  -0.5000000E+00 -0.8660254E+00  0.1124406E-15
  0.2188567E-14 -0.6749787E+01  0.7021634E+01  -0.5000000E+00 -0.8660254E+00  0.1124406E-15
           4
 -0.5845487E+01  0.3374894E+01  0.7021634E+01  -0.1000000E+01  0.0000000E+00  0.0000000E+00
 -0.5845487E+01  0.3374894E+01 -0.7021634E+01  -0.1000000E+01  0.0000000E+00  0.0000000E+00
 -0.5845487E+01 -0.3374894E+01 -0.7021634E+01  -0.1000000E+01  0.0000000E+00  0.0000000E+00
 -0.5845487E+01 -0.3374894E+01  0.7021634E+01  -0.1000000E+01  0.0000000E+00  0.0000000E+00
           4
 -0.1094284E-14 -0.6749787E+01  0.7021634E+01   0.5000000E+00 -0.8660254E+00 -0.0000000E+00
 -0.0000000E+00 -0.6749787E+01 -0.7021634E+01   0.5000000E+00 -0.8660254E+00 -0.0000000E+00
  0.5845487E+01 -0.3374894E+01 -0.7021634E+01   0.5000000E+00 -0.8660254E+00 -0.0000000E+00
  0.5845487E+01 -0.3374894E+01  0.7021634E+01   0.5000000E+00 -0.8660254E+00 -0.0000000E+00
           6
 -0.5845487E+01 -0.3374894E+01 -0.7021634E+01   0.0000000E+00  0.0000000E+00 -0.1000000E+01
 -0.5845487E+01  0.3374894E+01 -0.7021634E+01   0.0000000E+00  0.0000000E+00 -0.1000000E+01
  0.0000000E+00  0.6749787E+01 -0.7021634E+01   0.0000000E+00  0.0000000E+00 -0.1000000E+01
  0.5845487E+01  0.3374894E+01 -0.7021634E+01   0.0000000E+00  0.0000000E+00 -0.1000000E+01
  0.5845487E+01 -0.3374894E+01 -0.7021634E+01   0.0000000E+00  0.0000000E+00 -0.1000000E+01
 -0.0000000E+00 -0.6749787E+01 -0.7021634E+01   0.0000000E+00  0.0000000E+00 -0.1000000E+01
           6
 -0.2188567E-14 -0.6749787E+01  0.7021634E+01  -0.0000000E+00 -0.0000000E+00  0.1000000E+01
  0.5845487E+01 -0.3374894E+01  0.7021634E+01  -0.0000000E+00 -0.0000000E+00  0.1000000E+01
  0.5845487E+01  0.3374894E+01  0.7021634E+01  -0.0000000E+00 -0.0000000E+00  0.1000000E+01
 -0.1094284E-14  0.6749787E+01  0.7021634E+01  -0.0000000E+00 -0.0000000E+00  0.1000000E+01
 -0.5845487E+01  0.3374894E+01  0.7021634E+01  -0.0000000E+00 -0.0000000E+00  0.1000000E+01
 -0.5845487E+01 -0.3374894E+01  0.7021634E+01  -0.0000000E+00 -0.0000000E+00  0.1000000E+01
           4
 -0.5845487E+01  0.3374894E+01  0.7021634E+01  -0.5000000E+00  0.8660254E+00  0.0000000E+00
 -0.0000000E+00  0.6749787E+01  0.7021634E+01  -0.5000000E+00  0.8660254E+00  0.0000000E+00
 -0.0000000E+00  0.6749787E+01 -0.7021634E+01  -0.5000000E+00  0.8660254E+00  0.0000000E+00
 -0.5845487E+01  0.3374894E+01 -0.7021634E+01  -0.5000000E+00  0.8660254E+00  0.0000000E+00
           4
  0.5845487E+01 -0.3374894E+01 -0.7021634E+01   0.1000000E+01 -0.0000000E+00 -0.0000000E+00
  0.5845487E+01  0.3374894E+01 -0.7021634E+01   0.1000000E+01 -0.0000000E+00 -0.0000000E+00
  0.5845487E+01  0.3374894E+01  0.7021634E+01   0.1000000E+01 -0.0000000E+00 -0.0000000E+00
  0.5845487E+01 -0.3374894E+01  0.7021634E+01   0.1000000E+01 -0.0000000E+00 -0.0000000E+00
           4
  0.2188567E-14  0.6749787E+01  0.7021634E+01   0.5000000E+00  0.8660254E+00  0.1756864E-15
  0.5845487E+01  0.3374894E+01  0.7021634E+01   0.5000000E+00  0.8660254E+00  0.1756864E-15
  0.5845487E+01  0.3374894E+01 -0.7021634E+01   0.5000000E+00  0.8660254E+00  0.1756864E-15
 -0.0000000E+00  0.6749787E+01 -0.7021634E+01   0.5000000E+00  0.8660254E+00  0.1756864E-15
 WIGNER-SEITZ-CONVCELL_END
 BRILLOUIN-ZONE-PRIMCELL
           4
 -0.5702404E-01  0.0000000E+00 -0.3560425E-01  -0.8660254E+00 -0.5000000E+00 -0.0000000E+00
 -0.2851202E-01 -0.4938427E-01 -0.3560425E-01  -0.8660254E+00 -0.5000000E+00 -0.0000000E+00
 -0.2851202E-01 -0.4938427E-01  0.3560425E-01  -0.8660254E+00 -0.5000000E+00 -0.0000000E+00
 -0.5702404E-01 -0.0000000E+00  0.3560425E-01  -0.8660254E+00 -0.5000000E+00 -0.0000000E+00
           4
 -0.2851202E-01  0.4938427E-01  0.3560425E-01  -0.8660254E+00  0.5000000E+00  0.7909132E-16
 -0.2851202E-01  0.4938427E-01 -0.3560425E-01  -0.8660254E+00  0.5000000E+00  0.7909132E-16
 -0.5702404E-01  0.0000000E+00 -0.3560425E-01  -0.8660254E+00  0.5000000E+00  0.7909132E-16
 -0.5702404E-01 -0.1126395E-16  0.3560425E-01  -0.8660254E+00  0.5000000E+00  0.7909132E-16
           4
 -0.2851202E-01 -0.4938427E-01 -0.3560425E-01  -0.0000000E+00 -0.1000000E+01  0.2241263E-16
  0.2851202E-01 -0.4938427E-01 -0.3560425E-01  -0.0000000E+00 -0.1000000E+01  0.2241263E-16
  0.2851202E-01 -0.4938427E-01  0.3560425E-01  -0.0000000E+00 -0.1000000E+01  0.2241263E-16
 -0.2851202E-01 -0.4938427E-01  0.3560425E-01  -0.0000000E+00 -0.1000000E+01  0.2241263E-16
           6
 -0.5702404E-01  0.0000000E+00 -0.3560425E-01   0.0000000E+00  0.1540010E-15 -0.1000000E+01
 -0.2851202E-01  0.4938427E-01 -0.3560425E-01   0.0000000E+00  0.1540010E-15 -0.1000000E+01
  0.2851202E-01  0.4938427E-01 -0.3560425E-01   0.0000000E+00  0.1540010E-15 -0.1000000E+01
  0.5702404E-01 -0.0000000E+00 -0.3560425E-01   0.0000000E+00  0.1540010E-15 -0.1000000E+01
  0.2851202E-01 -0.4938427E-01 -0.3560425E-01   0.0000000E+00  0.1540010E-15 -0.1000000E+01
 -0.2851202E-01 -0.4938427E-01 -0.3560425E-01   0.0000000E+00  0.1540010E-15 -0.1000000E+01
           6
 -0.2851202E-01 -0.4938427E-01  0.3560425E-01  -0.0000000E+00  0.7700051E-16  0.1000000E+01
  0.2851202E-01 -0.4938427E-01  0.3560425E-01  -0.0000000E+00  0.7700051E-16  0.1000000E+01
  0.5702404E-01 -0.1689592E-16  0.3560425E-01  -0.0000000E+00  0.7700051E-16  0.1000000E+01
  0.2851202E-01  0.4938427E-01  0.3560425E-01  -0.0000000E+00  0.7700051E-16  0.1000000E+01
 -0.2851202E-01  0.4938427E-01  0.3560425E-01  -0.0000000E+00  0.7700051E-16  0.1000000E+01
 -0.5702404E-01 -0.1126395E-16  0.3560425E-01  -0.0000000E+00  0.7700051E-16  0.1000000E+01
           4
 -0.2851202E-01  0.4938427E-01  0.3560425E-01   0.0000000E+00  0.1000000E+01  0.2241263E-16
  0.2851202E-01  0.4938427E-01  0.3560425E-01   0.0000000E+00  0.1000000E+01  0.2241263E-16
  0.2851202E-01  0.4938427E-01 -0.3560425E-01   0.0000000E+00  0.1000000E+01  0.2241263E-16
 -0.2851202E-01  0.4938427E-01 -0.3560425E-01   0.0000000E+00  0.1000000E+01  0.2241263E-16
           4
  0.2851202E-01 -0.4938427E-01 -0.3560425E-01   0.8660254E+00 -0.5000000E+00 -0.0000000E+00
  0.5702404E-01  0.0000000E+00 -0.3560425E-01   0.8660254E+00 -0.5000000E+00 -0.0000000E+00
  0.5702404E-01  0.0000000E+00  0.3560425E-01   0.8660254E+00 -0.5000000E+00 -0.0000000E+00
  0.2851202E-01 -0.4938427E-01  0.3560425E-01   0.8660254E+00 -0.5000000E+00 -0.0000000E+00
           4
  0.2851202E-01  0.4938427E-01  0.3560425E-01   0.8660254E+00  0.5000000E+00  0.2478706E-15
  0.5702404E-01 -0.1126395E-16  0.3560425E-01   0.8660254E+00  0.5000000E+00  0.2478706E-15
  0.5702404E-01  0.0000000E+00 -0.3560425E-01   0.8660254E+00  0.5000000E+00  0.2478706E-15
  0.2851202E-01  0.4938427E-01 -0.3560425E-01   0.8660254E+00  0.5000000E+00  0.2478706E-15
 BRILLOUIN-ZONE-PRIMCELL_END
 BRILLOUIN-ZONE-CONVCELL
           4
 -0.5702404E-01  0.0000000E+00 -0.3560425E-01  -0.8660254E+00 -0.5000000E+00 -0.0000000E+00
 -0.2851202E-01 -0.4938427E-01 -0.3560425E-01  -0.8660254E+00 -0.5000000E+00 -0.0000000E+00
 -0.2851202E-01 -0.4938427E-01  0.3560425E-01  -0.8660254E+00 -0.5000000E+00 -0.0000000E+00
 -0.5702404E-01 -0.0000000E+00  0.3560425E-01  -0.8660254E+00 -0.5000000E+00 -0.0000000E+00
           4
 -0.2851202E-01  0.4938427E-01  0.3560425E-01  -0.8660254E+00  0.5000000E+00  0.7909132E-16
 -0.2851202E-01  0.4938427E-01 -0.3560425E-01  -0.8660254E+00  0.5000000E+00  0.7909132E-16
 -0.5702404E-01  0.0000000E+00 -0.3560425E-01  -0.8660254E+00  0.5000000E+00  0.7909132E-16
 -0.5702404E-01 -0.1126395E-16  0.3560425E-01  -0.8660254E+00  0.5000000E+00  0.7909132E-16
           4
 -0.2851202E-01 -0.4938427E-01 -0.3560425E-01  -0.0000000E+00 -0.1000000E+01  0.2241263E-16
  0.2851202E-01 -0.4938427E-01 -0.3560425E-01  -0.0000000E+00 -0.1000000E+01  0.2241263E-16
  0.2851202E-01 -0.4938427E-01  0.3560425E-01  -0.0000000E+00 -0.1000000E+01  0.2241263E-16
 -0.2851202E-01 -0.4938427E-01  0.3560425E-01  -0.0000000E+00 -0.1000000E+01  0.2241263E-16
           6
 -0.5702404E-01  0.0000000E+00 -0.3560425E-01   0.0000000E+00  0.1540010E-15 -0.1000000E+01
 -0.2851202E-01  0.4938427E-01 -0.3560425E-01   0.0000000E+00  0.1540010E-15 -0.1000000E+01
  0.2851202E-01  0.4938427E-01 -0.3560425E-01   0.0000000E+00  0.1540010E-15 -0.1000000E+01
  0.5702404E-01 -0.0000000E+00 -0.3560425E-01   0.0000000E+00  0.1540010E-15 -0.1000000E+01
  0.2851202E-01 -0.4938427E-01 -0.3560425E-01   0.0000000E+00  0.1540010E-15 -0.1000000E+01
 -0.2851202E-01 -0.4938427E-01 -0.3560425E-01   0.0000000E+00  0.1540010E-15 -0.1000000E+01
           6
 -0.2851202E-01 -0.4938427E-01  0.3560425E-01  -0.0000000E+00  0.7700051E-16  0.1000000E+01
  0.2851202E-01 -0.4938427E-01  0.3560425E-01  -0.0000000E+00  0.7700051E-16  0.1000000E+01
  0.5702404E-01 -0.1689592E-16  0.3560425E-01  -0.0000000E+00  0.7700051E-16  0.1000000E+01
  0.2851202E-01  0.4938427E-01  0.3560425E-01  -0.0000000E+00  0.7700051E-16  0.1000000E+01
 -0.2851202E-01  0.4938427E-01  0.3560425E-01  -0.0000000E+00  0.7700051E-16  0.1000000E+01
 -0.5702404E-01 -0.1126395E-16  0.3560425E-01  -0.0000000E+00  0.7700051E-16  0.1000000E+01
           4
 -0.2851202E-01  0.4938427E-01  0.3560425E-01   0.0000000E+00  0.1000000E+01  0.2241263E-16
  0.2851202E-01  0.4938427E-01  0.3560425E-01   0.0000000E+00  0.1000000E+01  0.2241263E-16
  0.2851202E-01  0.4938427E-01 -0.3560425E-01   0.0000000E+00  0.1000000E+01  0.2241263E-16
 -0.2851202E-01  0.4938427E-01 -0.3560425E-01   0.0000000E+00  0.1000000E+01  0.2241263E-16
           4
  0.2851202E-01 -0.4938427E-01 -0.3560425E-01   0.8660254E+00 -0.5000000E+00 -0.0000000E+00
  0.5702404E-01  0.0000000E+00 -0.3560425E-01   0.8660254E+00 -0.5000000E+00 -0.0000000E+00
  0.5702404E-01  0.0000000E+00  0.3560425E-01   0.8660254E+00 -0.5000000E+00 -0.0000000E+00
  0.2851202E-01 -0.4938427E-01  0.3560425E-01   0.8660254E+00 -0.5000000E+00 -0.0000000E+00
           4
  0.2851202E-01  0.4938427E-01  0.3560425E-01   0.8660254E+00  0.5000000E+00  0.2478706E-15
  0.5702404E-01 -0.1126395E-16  0.3560425E-01   0.8660254E+00  0.5000000E+00  0.2478706E-15
  0.5702404E-01  0.0000000E+00 -0.3560425E-01   0.8660254E+00  0.5000000E+00  0.2478706E-15
  0.2851202E-01  0.4938427E-01 -0.3560425E-01   0.8660254E+00  0.5000000E+00  0.2478706E-15
 BRILLOUIN-ZONE-CONVCELL_END
 ATOMS
   74   -0.5428905890    1.6477792120    3.2200392640
   74    2.7198217800    1.7390444700    2.8337284370
   74    5.5918089380    1.8359870260    2.9946211380
   74    8.2973260940    1.4641946630    3.6620263400
   74   -1.5797289720    4.0856380240    3.9920757620
   74    1.5089971440    4.1330056580    3.7141168780
   74    4.7405781610    4.3822676680    3.2549227800
   74    7.4504442210    4.3467416820    3.0661811630
   74   -2.7775600120    7.1480869860    3.7514441060
   74   -0.0079823800    6.4989794560    3.8517425060
   74    3.0840547220    6.5181337880    3.7334321700
   74    6.3503481070    6.8553192160    3.6152444720
   74   -4.3193473780    9.6480358230    3.4086189550
   74   -1.3360800030    9.5211100760    3.3674593370
   74    1.3323448080    8.9864720020    3.4017013000
   74    4.3194074270    9.4188642890    3.5065679190
   74    1.5660476410    0.6998099670   10.6912546680
   74    4.5973002130    0.6698246710   10.7811777810
   74    7.1615435920    1.1434224580   10.9484821930
   74   10.2342923800    0.7967807010   10.8184753520
   74    0.1322016960    3.3394652990   10.2829300740
   74    2.6511962490    3.3490911290   10.3244991890
   74    5.5061527560    3.3348790840   10.5729719420
   74    8.7916930260    3.5287348590   10.6257691710
   74   -1.3090656260    5.7089198120   10.5204451180
   74    1.4764433210    5.8628097490   10.0656271070
   74    4.2023983510    6.0100892940   10.2100905140
   74    7.0422320980    5.5894455790   10.6092772170
   74   -2.6409032440    8.0799014450   10.9272102630
   74   -0.0122596720    8.4468185710   10.7719718140
   74    3.0960088990    8.6143363900   10.5040666170
   74    5.8273381290    8.4335827820   10.7182492010
   34   -0.0923250320    1.3226838700    8.7714148390
   34    3.2906281080    1.3094466770    8.8184346660
   34   -1.5217258170    4.0811304040    8.5786085790
   52    4.1070197890    4.1311950250    8.2307657560
   34    7.1817792580    3.6680874600    8.7838701470
   34   -0.3268689230    7.1160273950    8.6725483310
   34    2.8702184690    7.1875184330    8.4337593430
   34    6.0302146520    6.8520810590    8.6818576350
   34   -3.8762149280    8.8988087880    9.0370880720
   34    1.4954435330    9.8754636710    8.9733833900
   34    0.8935432780    1.1755698530    1.2678895170
   34    4.3060175480    0.7097748550    1.1813055610
   34    2.8816832240    4.8461357460    1.6839921210
   52    6.0659750910    3.5358097460    0.8968761050
   34    9.2614603460    2.7028947580    1.8119361270
   34   -0.1543940970    4.8124696760    2.0116674410
   34    8.0213674080    6.3213114750    1.6033860820
   34   -0.4073538500    7.9165582300    1.7675214800
   34    2.9470835830    8.2265646970    1.6939167990
   34    5.9093972450    8.4139589400    1.7452398480
   34    0.0859802900    2.0055163630   12.3779019040
   34    3.2136577960    1.7470507520   12.4089461430
   34    8.7786866170    1.9882748960   12.6528407900
   34    3.7079770910    4.5324335410   12.2167203610
   34   -2.9068432790    5.5383266330   12.4270310380
   34    0.4278381570    6.3302595490   12.2535814450
   34    5.5446570160    6.6126601780   12.3756658850
   52   -4.1555759150    9.0613655010   12.8652719480
   34    1.6320058660    9.2339017000   12.5174966050
   34    3.8384826190    2.7289337430    4.8886772900
   34    6.1639613810    0.4891466100    5.0739205110
   34    0.0198077260    2.7133557060    5.4053791120
   34    8.0630600670    3.3064728980    5.3283533710
   52   -1.7340529140    6.0162678240    5.9178885230
   34    1.6313623860    5.7101449860    5.6379923700
   34    4.9158293990    5.7908774470    5.3555149950
   34   -2.7536611880    9.1486704390    5.3886442650
   34    2.8181825290    8.5596195450    5.3511373710
   34    5.9673145190    8.8738226530    5.3355440980
 FRAMES
1      0.0000000000    0.0000000000    0.0000000000     11.6909748500    0.0000000000    0.0000000000
1      0.0000000000    0.0000000000    0.0000000000     -5.8454874250   10.1246812150    0.0000000000
1      0.0000000000    0.0000000000    0.0000000000      0.0000000000    0.0000000000   14.0432688100
1      0.0000000000    0.0000000000   14.0432688100     11.6909748500    0.0000000000   14.0432688100
1      0.0000000000    0.0000000000   14.0432688100     -5.8454874250   10.1246812150   14.0432688100
1     -5.8454874250   10.1246812150    0.0000000000      5.8454874250   10.1246812150    0.0000000000
1     -5.8454874250   10.1246812150    0.0000000000     -5.8454874250   10.1246812150   14.0432688100
1     -5.8454874250   10.1246812150   14.0432688100      5.8454874250   10.1246812150   14.0432688100
1     11.6909748500    0.0000000000    0.0000000000      5.8454874250   10.1246812150    0.0000000000
1     11.6909748500    0.0000000000    0.0000000000     11.6909748500    0.0000000000   14.0432688100
1     11.6909748500    0.0000000000   14.0432688100      5.8454874250   10.1246812150   14.0432688100
1      5.8454874250   10.1246812150    0.0000000000      5.8454874250   10.1246812150   14.0432688100
