 INFO
nunit      1    1    1
unit   cell
celltype   convcell
shape   parapipedal
 END_INFO
 DIM-GROUP
           3           9
 PRIMVEC
   11.8558891100    0.0000000000    0.0000000000
   -5.9279445550   10.2675011540    0.0000000000
    0.0000000000    0.0000000000   12.0084994700
 CONVVEC
   11.8558891100    0.0000000000    0.0000000000
   -5.9279445550   10.2675011540    0.0000000000
    0.0000000000    0.0000000000   12.0084994700
 PRIMCOORD
          71           1
 74     -0.0848598990     1.7847143730     2.9981615860
 74      2.6854596770     1.5390381120     3.0012891780
 74      5.9861044800     1.6946596680     3.0010904710
 74      9.0533213150     1.8089738030     3.0017663600
 74     -1.4636252380     4.1696678500     3.0031068070
 74      1.1955756650     4.1104036440     3.0011667340
 74      4.4547710370     4.2499966450     2.9997473980
 74      7.6431985800     4.1854359800     2.9919104760
 74     -2.8218334470     6.9251441490     2.9860160890
 74     -0.2916415900     6.6899789090     2.9998201690
 74      2.9390965320     6.8535475110     3.0002785670
 74      6.0566941910     6.9039003140     3.0036626110
 74     -4.3008962520     9.4965054720     2.9975247200
 74     -1.7135434820     9.2775033480     3.0019478890
 74      1.4909510260     9.4727121060     3.0012837080
 74      4.4903400890     9.6669587570     2.9985469120
 74      1.2473605010     0.7709214210     9.0188829230
 74      4.3575523890     0.7983300520     9.0109100910
 74      7.7109934740     1.0210810970     9.0103404200
 74     10.4408877750     1.0319474650     9.0535907880
 74     -0.2602718300     3.3511227150     9.0179682640
 74      2.8564767350     3.3663664970     9.0156135400
 74      6.2520386030     3.6106509320     9.0127734110
 74      9.0124947800     3.5065622890     9.0404246080
 74     -1.7158124010     5.8043504220     9.0138140530
 74      1.3753625010     5.9180244320     9.0158783470
 74      4.6309795910     6.1045508810     8.9322485440
 74      7.5373387650     6.0156325810     9.0663160900
 74     -3.1500459190     8.4089041340     9.0532928650
 74     -0.1001859220     8.5075593530     9.0120290300
 74      3.0869414470     8.6332828970     9.0092131380
 74      6.1265337480     8.6215029180     8.9811660010
 34      2.6842538610     1.5480777610     7.4118564880
 34      6.1163931520     1.8234586100     7.4478204500
 34      1.1773075360     4.0975436070     7.3875437820
 34      4.5610776340     4.2656899690     7.4518091690
 34     -0.3172909330     6.6640580500     7.3944832490
 34      2.9708943030     6.8522546580     7.4161949480
 34      6.3690077500     6.8828126090     7.3155985210
 34     -1.7860696170     9.2450297530     7.3989676820
 34      1.5418111600     9.5087276720     7.4481004330
 34      4.7200769290     9.7604140740     7.3656620360
 34      4.2407241810     0.7390314850     1.4035671800
 34      7.6884534680     1.0162164760     1.3477373190
 34      2.7280658210     3.2795856030     1.4041047490
 34      6.0778338720     3.4229448530     1.4050960180
 34      1.2352603810     5.8523472920     1.4032553060
 34      4.4970326940     6.0163273060     1.4195933050
 34      7.7941923330     6.0210197590     1.3187463550
 34     -0.2054475540     8.4348418440     1.4013556760
 34      3.0356759790     8.6778232480     1.4165507250
 34      6.1567031290     8.8530588760     1.3434721000
 34      2.6969792250     1.5428467880    10.6207678560
 34      6.1080492260     1.8232584770    10.5623617810
 34      1.1724133160     4.0889234230    10.6516101390
 34      4.6394944900     4.3810284110    10.5591466780
 34     -0.3039505110     6.6698141840    10.6238321170
 34      3.0543660550     6.8497118380    10.5737454580
 34     -1.7600346560     9.2644946170    10.6467571580
 34      1.5507017360     9.5100121960    10.5701365700
 34      4.7538837630     9.6116199350    10.6649389610
 34      4.2406944200     0.7394979710     4.6018038430
 34      7.6884307000     1.0162405400     4.6559893840
 34      2.7291074710     3.2796338610     4.5978680710
 34      6.0834953950     3.4278061950     4.5906236900
 34      1.2350121600     5.8530338820     4.5977170020
 34      4.4904452470     6.0123168640     4.5832572380
 34      7.8127187080     6.0118198280     4.6530023290
 34     -0.2061691230     8.4344388620     4.6033639380
 34      3.0366334030     8.6771481750     4.5830661640
 34      6.1538536180     8.8652027940     4.6511485440
 CONVCOORD
          71           1
 74     -0.0848598990     1.7847143730     2.9981615860
 74      2.6854596770     1.5390381120     3.0012891780
 74      5.9861044800     1.6946596680     3.0010904710
 74      9.0533213150     1.8089738030     3.0017663600
 74     -1.4636252380     4.1696678500     3.0031068070
 74      1.1955756650     4.1104036440     3.0011667340
 74      4.4547710370     4.2499966450     2.9997473980
 74      7.6431985800     4.1854359800     2.9919104760
 74     -2.8218334470     6.9251441490     2.9860160890
 74     -0.2916415900     6.6899789090     2.9998201690
 74      2.9390965320     6.8535475110     3.0002785670
 74      6.0566941910     6.9039003140     3.0036626110
 74     -4.3008962520     9.4965054720     2.9975247200
 74     -1.7135434820     9.2775033480     3.0019478890
 74      1.4909510260     9.4727121060     3.0012837080
 74      4.4903400890     9.6669587570     2.9985469120
 74      1.2473605010     0.7709214210     9.0188829230
 74      4.3575523890     0.7983300520     9.0109100910
 74      7.7109934740     1.0210810970     9.0103404200
 74     10.4408877750     1.0319474650     9.0535907880
 74     -0.2602718300     3.3511227150     9.0179682640
 74      2.8564767350     3.3663664970     9.0156135400
 74      6.2520386030     3.6106509320     9.0127734110
 74      9.0124947800     3.5065622890     9.0404246080
 74     -1.7158124010     5.8043504220     9.0138140530
 74      1.3753625010     5.9180244320     9.0158783470
 74      4.6309795910     6.1045508810     8.9322485440
 74      7.5373387650     6.0156325810     9.0663160900
 74     -3.1500459190     8.4089041340     9.0532928650
 74     -0.1001859220     8.5075593530     9.0120290300
 74      3.0869414470     8.6332828970     9.0092131380
 74      6.1265337480     8.6215029180     8.9811660010
 34      2.6842538610     1.5480777610     7.4118564880
 34      6.1163931520     1.8234586100     7.4478204500
 34      1.1773075360     4.0975436070     7.3875437820
 34      4.5610776340     4.2656899690     7.4518091690
 34     -0.3172909330     6.6640580500     7.3944832490
 34      2.9708943030     6.8522546580     7.4161949480
 34      6.3690077500     6.8828126090     7.3155985210
 34     -1.7860696170     9.2450297530     7.3989676820
 34      1.5418111600     9.5087276720     7.4481004330
 34      4.7200769290     9.7604140740     7.3656620360
 34      4.2407241810     0.7390314850     1.4035671800
 34      7.6884534680     1.0162164760     1.3477373190
 34      2.7280658210     3.2795856030     1.4041047490
 34      6.0778338720     3.4229448530     1.4050960180
 34      1.2352603810     5.8523472920     1.4032553060
 34      4.4970326940     6.0163273060     1.4195933050
 34      7.7941923330     6.0210197590     1.3187463550
 34     -0.2054475540     8.4348418440     1.4013556760
 34      3.0356759790     8.6778232480     1.4165507250
 34      6.1567031290     8.8530588760     1.3434721000
 34      2.6969792250     1.5428467880    10.6207678560
 34      6.1080492260     1.8232584770    10.5623617810
 34      1.1724133160     4.0889234230    10.6516101390
 34      4.6394944900     4.3810284110    10.5591466780
 34     -0.3039505110     6.6698141840    10.6238321170
 34      3.0543660550     6.8497118380    10.5737454580
 34     -1.7600346560     9.2644946170    10.6467571580
 34      1.5507017360     9.5100121960    10.5701365700
 34      4.7538837630     9.6116199350    10.6649389610
 34      4.2406944200     0.7394979710     4.6018038430
 34      7.6884307000     1.0162405400     4.6559893840
 34      2.7291074710     3.2796338610     4.5978680710
 34      6.0834953950     3.4278061950     4.5906236900
 34      1.2350121600     5.8530338820     4.5977170020
 34      4.4904452470     6.0123168640     4.5832572380
 34      7.8127187080     6.0118198280     4.6530023290
 34     -0.2061691230     8.4344388620     4.6033639380
 34      3.0366334030     8.6771481750     4.5830661640
 34      6.1538536180     8.8652027940     4.6511485440
 RECIP-PRIMVEC
    0.0843462680    0.0486973405   -0.0000000000

    0.0000000000    0.0973946810    0.0000000000

    0.0000000000   -0.0000000000    0.0832743510

 RECIP-CONVVEC
    0.0843462680    0.0486973405   -0.0000000000

    0.0000000000    0.0973946810    0.0000000000

    0.0000000000   -0.0000000000    0.0832743510

 WIGNER-SEITZ-PRIMCELL
           4
 -0.5927945E+01 -0.3422500E+01 -0.6004250E+01  -0.5000000E+00 -0.8660254E+00  0.1382538E-15
 -0.1244350E-14 -0.6845001E+01 -0.6004250E+01  -0.5000000E+00 -0.8660254E+00  0.1382538E-15
 -0.2488700E-14 -0.6845001E+01  0.6004250E+01  -0.5000000E+00 -0.8660254E+00  0.1382538E-15
 -0.5927945E+01 -0.3422500E+01  0.6004250E+01  -0.5000000E+00 -0.8660254E+00  0.1382538E-15
           4
 -0.5927945E+01 -0.3422500E+01  0.6004250E+01  -0.1000000E+01  0.0000000E+00  0.0000000E+00
 -0.5927945E+01  0.3422500E+01  0.6004250E+01  -0.1000000E+01  0.0000000E+00  0.0000000E+00
 -0.5927945E+01  0.3422500E+01 -0.6004250E+01  -0.1000000E+01  0.0000000E+00  0.0000000E+00
 -0.5927945E+01 -0.3422500E+01 -0.6004250E+01  -0.1000000E+01  0.0000000E+00  0.0000000E+00
           4
 -0.1244350E-14 -0.6845001E+01 -0.6004250E+01   0.5000000E+00 -0.8660254E+00 -0.8644263E-16
  0.5927945E+01 -0.3422500E+01 -0.6004250E+01   0.5000000E+00 -0.8660254E+00 -0.8644263E-16
  0.5927945E+01 -0.3422500E+01  0.6004250E+01   0.5000000E+00 -0.8660254E+00 -0.8644263E-16
  0.0000000E+00 -0.6845001E+01  0.6004250E+01   0.5000000E+00 -0.8660254E+00 -0.8644263E-16
           6
 -0.5927945E+01 -0.3422500E+01 -0.6004250E+01   0.1751107E-15  0.0000000E+00 -0.1000000E+01
 -0.5927945E+01  0.3422500E+01 -0.6004250E+01   0.1751107E-15  0.0000000E+00 -0.1000000E+01
 -0.1244350E-14  0.6845001E+01 -0.6004250E+01   0.1751107E-15  0.0000000E+00 -0.1000000E+01
  0.5927945E+01  0.3422500E+01 -0.6004250E+01   0.1751107E-15  0.0000000E+00 -0.1000000E+01
  0.5927945E+01 -0.3422500E+01 -0.6004250E+01   0.1751107E-15  0.0000000E+00 -0.1000000E+01
 -0.1244350E-14 -0.6845001E+01 -0.6004250E+01   0.1751107E-15  0.0000000E+00 -0.1000000E+01
           6
 -0.2488700E-14 -0.6845001E+01  0.6004250E+01   0.1751107E-15 -0.0000000E+00  0.1000000E+01
  0.5927945E+01 -0.3422500E+01  0.6004250E+01   0.1751107E-15 -0.0000000E+00  0.1000000E+01
  0.5927945E+01  0.3422500E+01  0.6004250E+01   0.1751107E-15 -0.0000000E+00  0.1000000E+01
 -0.3733050E-14  0.6845001E+01  0.6004250E+01   0.1751107E-15 -0.0000000E+00  0.1000000E+01
 -0.5927945E+01  0.3422500E+01  0.6004250E+01   0.1751107E-15 -0.0000000E+00  0.1000000E+01
 -0.5927945E+01 -0.3422500E+01  0.6004250E+01   0.1751107E-15 -0.0000000E+00  0.1000000E+01
           4
 -0.1244350E-14  0.6845001E+01  0.6004250E+01  -0.5000000E+00  0.8660254E+00 -0.8644263E-16
  0.1244350E-14  0.6845001E+01 -0.6004250E+01  -0.5000000E+00  0.8660254E+00 -0.8644263E-16
 -0.5927945E+01  0.3422500E+01 -0.6004250E+01  -0.5000000E+00  0.8660254E+00 -0.8644263E-16
 -0.5927945E+01  0.3422500E+01  0.6004250E+01  -0.5000000E+00  0.8660254E+00 -0.8644263E-16
           4
  0.5927945E+01 -0.3422500E+01 -0.6004250E+01   0.1000000E+01 -0.0000000E+00 -0.0000000E+00
  0.5927945E+01  0.3422500E+01 -0.6004250E+01   0.1000000E+01 -0.0000000E+00 -0.0000000E+00
  0.5927945E+01  0.3422500E+01  0.6004250E+01   0.1000000E+01 -0.0000000E+00 -0.0000000E+00
  0.5927945E+01 -0.3422500E+01  0.6004250E+01   0.1000000E+01 -0.0000000E+00 -0.0000000E+00
           4
  0.5927945E+01  0.3422500E+01  0.6004250E+01   0.5000000E+00  0.8660254E+00  0.2593279E-15
  0.5927945E+01  0.3422500E+01 -0.6004250E+01   0.5000000E+00  0.8660254E+00  0.2593279E-15
  0.1244350E-14  0.6845001E+01 -0.6004250E+01   0.5000000E+00  0.8660254E+00  0.2593279E-15
 -0.3733050E-14  0.6845001E+01  0.6004250E+01   0.5000000E+00  0.8660254E+00  0.2593279E-15
 WIGNER-SEITZ-PRIMCELL_END
 WIGNER-SEITZ-CONVCELL
           4
 -0.5927945E+01 -0.3422500E+01 -0.6004250E+01  -0.5000000E+00 -0.8660254E+00  0.1382538E-15
 -0.1244350E-14 -0.6845001E+01 -0.6004250E+01  -0.5000000E+00 -0.8660254E+00  0.1382538E-15
 -0.2488700E-14 -0.6845001E+01  0.6004250E+01  -0.5000000E+00 -0.8660254E+00  0.1382538E-15
 -0.5927945E+01 -0.3422500E+01  0.6004250E+01  -0.5000000E+00 -0.8660254E+00  0.1382538E-15
           4
 -0.5927945E+01 -0.3422500E+01  0.6004250E+01  -0.1000000E+01  0.0000000E+00  0.0000000E+00
 -0.5927945E+01  0.3422500E+01  0.6004250E+01  -0.1000000E+01  0.0000000E+00  0.0000000E+00
 -0.5927945E+01  0.3422500E+01 -0.6004250E+01  -0.1000000E+01  0.0000000E+00  0.0000000E+00
 -0.5927945E+01 -0.3422500E+01 -0.6004250E+01  -0.1000000E+01  0.0000000E+00  0.0000000E+00
           4
 -0.1244350E-14 -0.6845001E+01 -0.6004250E+01   0.5000000E+00 -0.8660254E+00 -0.8644263E-16
  0.5927945E+01 -0.3422500E+01 -0.6004250E+01   0.5000000E+00 -0.8660254E+00 -0.8644263E-16
  0.5927945E+01 -0.3422500E+01  0.6004250E+01   0.5000000E+00 -0.8660254E+00 -0.8644263E-16
  0.0000000E+00 -0.6845001E+01  0.6004250E+01   0.5000000E+00 -0.8660254E+00 -0.8644263E-16
           6
 -0.5927945E+01 -0.3422500E+01 -0.6004250E+01   0.1751107E-15  0.0000000E+00 -0.1000000E+01
 -0.5927945E+01  0.3422500E+01 -0.6004250E+01   0.1751107E-15  0.0000000E+00 -0.1000000E+01
 -0.1244350E-14  0.6845001E+01 -0.6004250E+01   0.1751107E-15  0.0000000E+00 -0.1000000E+01
  0.5927945E+01  0.3422500E+01 -0.6004250E+01   0.1751107E-15  0.0000000E+00 -0.1000000E+01
  0.5927945E+01 -0.3422500E+01 -0.6004250E+01   0.1751107E-15  0.0000000E+00 -0.1000000E+01
 -0.1244350E-14 -0.6845001E+01 -0.6004250E+01   0.1751107E-15  0.0000000E+00 -0.1000000E+01
           6
 -0.2488700E-14 -0.6845001E+01  0.6004250E+01   0.1751107E-15 -0.0000000E+00  0.1000000E+01
  0.5927945E+01 -0.3422500E+01  0.6004250E+01   0.1751107E-15 -0.0000000E+00  0.1000000E+01
  0.5927945E+01  0.3422500E+01  0.6004250E+01   0.1751107E-15 -0.0000000E+00  0.1000000E+01
 -0.3733050E-14  0.6845001E+01  0.6004250E+01   0.1751107E-15 -0.0000000E+00  0.1000000E+01
 -0.5927945E+01  0.3422500E+01  0.6004250E+01   0.1751107E-15 -0.0000000E+00  0.1000000E+01
 -0.5927945E+01 -0.3422500E+01  0.6004250E+01   0.1751107E-15 -0.0000000E+00  0.1000000E+01
           4
 -0.1244350E-14  0.6845001E+01  0.6004250E+01  -0.5000000E+00  0.8660254E+00 -0.8644263E-16
  0.1244350E-14  0.6845001E+01 -0.6004250E+01  -0.5000000E+00  0.8660254E+00 -0.8644263E-16
 -0.5927945E+01  0.3422500E+01 -0.6004250E+01  -0.5000000E+00  0.8660254E+00 -0.8644263E-16
 -0.5927945E+01  0.3422500E+01  0.6004250E+01  -0.5000000E+00  0.8660254E+00 -0.8644263E-16
           4
  0.5927945E+01 -0.3422500E+01 -0.6004250E+01   0.1000000E+01 -0.0000000E+00 -0.0000000E+00
  0.5927945E+01  0.3422500E+01 -0.6004250E+01   0.1000000E+01 -0.0000000E+00 -0.0000000E+00
  0.5927945E+01  0.3422500E+01  0.6004250E+01   0.1000000E+01 -0.0000000E+00 -0.0000000E+00
  0.5927945E+01 -0.3422500E+01  0.6004250E+01   0.1000000E+01 -0.0000000E+00 -0.0000000E+00
           4
  0.5927945E+01  0.3422500E+01  0.6004250E+01   0.5000000E+00  0.8660254E+00  0.2593279E-15
  0.5927945E+01  0.3422500E+01 -0.6004250E+01   0.5000000E+00  0.8660254E+00  0.2593279E-15
  0.1244350E-14  0.6845001E+01 -0.6004250E+01   0.5000000E+00  0.8660254E+00  0.2593279E-15
 -0.3733050E-14  0.6845001E+01  0.6004250E+01   0.5000000E+00  0.8660254E+00  0.2593279E-15
 WIGNER-SEITZ-CONVCELL_END
 BRILLOUIN-ZONE-PRIMCELL
           4
 -0.5623085E-01  0.9905535E-17  0.4163718E-01  -0.8660254E+00 -0.5000000E+00  0.5947530E-16
 -0.5623085E-01  0.0000000E+00 -0.4163718E-01  -0.8660254E+00 -0.5000000E+00  0.5947530E-16
 -0.2811542E-01 -0.4869734E-01 -0.4163718E-01  -0.8660254E+00 -0.5000000E+00  0.5947530E-16
 -0.2811542E-01 -0.4869734E-01  0.4163718E-01  -0.8660254E+00 -0.5000000E+00  0.5947530E-16
           4
 -0.5623085E-01 -0.0000000E+00  0.4163718E-01  -0.8660254E+00  0.5000000E+00 -0.9261565E-16
 -0.2811542E-01  0.4869734E-01  0.4163718E-01  -0.8660254E+00  0.5000000E+00 -0.9261565E-16
 -0.2811542E-01  0.4869734E-01 -0.4163718E-01  -0.8660254E+00  0.5000000E+00 -0.9261565E-16
 -0.5623085E-01  0.0000000E+00 -0.4163718E-01  -0.8660254E+00  0.5000000E+00 -0.9261565E-16
           4
 -0.2811542E-01 -0.4869734E-01 -0.4163718E-01  -0.0000000E+00 -0.1000000E+01 -0.7698804E-16
  0.2811542E-01 -0.4869734E-01 -0.4163718E-01  -0.0000000E+00 -0.1000000E+01 -0.7698804E-16
  0.2811542E-01 -0.4869734E-01  0.4163718E-01  -0.0000000E+00 -0.1000000E+01 -0.7698804E-16
 -0.2811542E-01 -0.4869734E-01  0.4163718E-01  -0.0000000E+00 -0.1000000E+01 -0.7698804E-16
           6
 -0.5623085E-01  0.0000000E+00 -0.4163718E-01   0.0000000E+00 -0.7918819E-16 -0.1000000E+01
 -0.2811542E-01  0.4869734E-01 -0.4163718E-01   0.0000000E+00 -0.7918819E-16 -0.1000000E+01
  0.2811542E-01  0.4869734E-01 -0.4163718E-01   0.0000000E+00 -0.7918819E-16 -0.1000000E+01
  0.5623085E-01 -0.0000000E+00 -0.4163718E-01   0.0000000E+00 -0.7918819E-16 -0.1000000E+01
  0.2811542E-01 -0.4869734E-01 -0.4163718E-01   0.0000000E+00 -0.7918819E-16 -0.1000000E+01
 -0.2811542E-01 -0.4869734E-01 -0.4163718E-01   0.0000000E+00 -0.7918819E-16 -0.1000000E+01
           6
 -0.2811542E-01 -0.4869734E-01  0.4163718E-01  -0.0000000E+00 -0.7918819E-16  0.1000000E+01
  0.2811542E-01 -0.4869734E-01  0.4163718E-01  -0.0000000E+00 -0.7918819E-16  0.1000000E+01
  0.5623085E-01 -0.4952767E-17  0.4163718E-01  -0.0000000E+00 -0.7918819E-16  0.1000000E+01
  0.2811542E-01  0.4869734E-01  0.4163718E-01  -0.0000000E+00 -0.7918819E-16  0.1000000E+01
 -0.2811542E-01  0.4869734E-01  0.4163718E-01  -0.0000000E+00 -0.7918819E-16  0.1000000E+01
 -0.5623085E-01 -0.0000000E+00  0.4163718E-01  -0.0000000E+00 -0.7918819E-16  0.1000000E+01
           4
  0.2811542E-01  0.4869734E-01  0.4163718E-01   0.0000000E+00  0.1000000E+01  0.9261565E-16
  0.2811542E-01  0.4869734E-01 -0.4163718E-01   0.0000000E+00  0.1000000E+01  0.9261565E-16
 -0.2811542E-01  0.4869734E-01 -0.4163718E-01   0.0000000E+00  0.1000000E+01  0.9261565E-16
 -0.2811542E-01  0.4869734E-01  0.4163718E-01   0.0000000E+00  0.1000000E+01  0.9261565E-16
           4
  0.2811542E-01 -0.4869734E-01  0.4163718E-01   0.8660254E+00 -0.5000000E+00  0.2315391E-15
  0.2811542E-01 -0.4869734E-01 -0.4163718E-01   0.8660254E+00 -0.5000000E+00  0.2315391E-15
  0.5623085E-01  0.0000000E+00 -0.4163718E-01   0.8660254E+00 -0.5000000E+00  0.2315391E-15
  0.5623085E-01  0.0000000E+00  0.4163718E-01   0.8660254E+00 -0.5000000E+00  0.2315391E-15
           4
  0.5623085E-01  0.9905535E-17  0.4163718E-01   0.8660254E+00  0.5000000E+00  0.2315391E-15
  0.5623085E-01  0.0000000E+00 -0.4163718E-01   0.8660254E+00  0.5000000E+00  0.2315391E-15
  0.2811542E-01  0.4869734E-01 -0.4163718E-01   0.8660254E+00  0.5000000E+00  0.2315391E-15
  0.2811542E-01  0.4869734E-01  0.4163718E-01   0.8660254E+00  0.5000000E+00  0.2315391E-15
 BRILLOUIN-ZONE-PRIMCELL_END
 BRILLOUIN-ZONE-CONVCELL
           4
 -0.5623085E-01  0.9905535E-17  0.4163718E-01  -0.8660254E+00 -0.5000000E+00  0.5947530E-16
 -0.5623085E-01  0.0000000E+00 -0.4163718E-01  -0.8660254E+00 -0.5000000E+00  0.5947530E-16
 -0.2811542E-01 -0.4869734E-01 -0.4163718E-01  -0.8660254E+00 -0.5000000E+00  0.5947530E-16
 -0.2811542E-01 -0.4869734E-01  0.4163718E-01  -0.8660254E+00 -0.5000000E+00  0.5947530E-16
           4
 -0.5623085E-01 -0.0000000E+00  0.4163718E-01  -0.8660254E+00  0.5000000E+00 -0.9261565E-16
 -0.2811542E-01  0.4869734E-01  0.4163718E-01  -0.8660254E+00  0.5000000E+00 -0.9261565E-16
 -0.2811542E-01  0.4869734E-01 -0.4163718E-01  -0.8660254E+00  0.5000000E+00 -0.9261565E-16
 -0.5623085E-01  0.0000000E+00 -0.4163718E-01  -0.8660254E+00  0.5000000E+00 -0.9261565E-16
           4
 -0.2811542E-01 -0.4869734E-01 -0.4163718E-01  -0.0000000E+00 -0.1000000E+01 -0.7698804E-16
  0.2811542E-01 -0.4869734E-01 -0.4163718E-01  -0.0000000E+00 -0.1000000E+01 -0.7698804E-16
  0.2811542E-01 -0.4869734E-01  0.4163718E-01  -0.0000000E+00 -0.1000000E+01 -0.7698804E-16
 -0.2811542E-01 -0.4869734E-01  0.4163718E-01  -0.0000000E+00 -0.1000000E+01 -0.7698804E-16
           6
 -0.5623085E-01  0.0000000E+00 -0.4163718E-01   0.0000000E+00 -0.7918819E-16 -0.1000000E+01
 -0.2811542E-01  0.4869734E-01 -0.4163718E-01   0.0000000E+00 -0.7918819E-16 -0.1000000E+01
  0.2811542E-01  0.4869734E-01 -0.4163718E-01   0.0000000E+00 -0.7918819E-16 -0.1000000E+01
  0.5623085E-01 -0.0000000E+00 -0.4163718E-01   0.0000000E+00 -0.7918819E-16 -0.1000000E+01
  0.2811542E-01 -0.4869734E-01 -0.4163718E-01   0.0000000E+00 -0.7918819E-16 -0.1000000E+01
 -0.2811542E-01 -0.4869734E-01 -0.4163718E-01   0.0000000E+00 -0.7918819E-16 -0.1000000E+01
           6
 -0.2811542E-01 -0.4869734E-01  0.4163718E-01  -0.0000000E+00 -0.7918819E-16  0.1000000E+01
  0.2811542E-01 -0.4869734E-01  0.4163718E-01  -0.0000000E+00 -0.7918819E-16  0.1000000E+01
  0.5623085E-01 -0.4952767E-17  0.4163718E-01  -0.0000000E+00 -0.7918819E-16  0.1000000E+01
  0.2811542E-01  0.4869734E-01  0.4163718E-01  -0.0000000E+00 -0.7918819E-16  0.1000000E+01
 -0.2811542E-01  0.4869734E-01  0.4163718E-01  -0.0000000E+00 -0.7918819E-16  0.1000000E+01
 -0.5623085E-01 -0.0000000E+00  0.4163718E-01  -0.0000000E+00 -0.7918819E-16  0.1000000E+01
           4
  0.2811542E-01  0.4869734E-01  0.4163718E-01   0.0000000E+00  0.1000000E+01  0.9261565E-16
  0.2811542E-01  0.4869734E-01 -0.4163718E-01   0.0000000E+00  0.1000000E+01  0.9261565E-16
 -0.2811542E-01  0.4869734E-01 -0.4163718E-01   0.0000000E+00  0.1000000E+01  0.9261565E-16
 -0.2811542E-01  0.4869734E-01  0.4163718E-01   0.0000000E+00  0.1000000E+01  0.9261565E-16
           4
  0.2811542E-01 -0.4869734E-01  0.4163718E-01   0.8660254E+00 -0.5000000E+00  0.2315391E-15
  0.2811542E-01 -0.4869734E-01 -0.4163718E-01   0.8660254E+00 -0.5000000E+00  0.2315391E-15
  0.5623085E-01  0.0000000E+00 -0.4163718E-01   0.8660254E+00 -0.5000000E+00  0.2315391E-15
  0.5623085E-01  0.0000000E+00  0.4163718E-01   0.8660254E+00 -0.5000000E+00  0.2315391E-15
           4
  0.5623085E-01  0.9905535E-17  0.4163718E-01   0.8660254E+00  0.5000000E+00  0.2315391E-15
  0.5623085E-01  0.0000000E+00 -0.4163718E-01   0.8660254E+00  0.5000000E+00  0.2315391E-15
  0.2811542E-01  0.4869734E-01 -0.4163718E-01   0.8660254E+00  0.5000000E+00  0.2315391E-15
  0.2811542E-01  0.4869734E-01  0.4163718E-01   0.8660254E+00  0.5000000E+00  0.2315391E-15
 BRILLOUIN-ZONE-CONVCELL_END
 ATOMS
   74   -0.0848598990    1.7847143730    2.9981615860
   74    2.6854596770    1.5390381120    3.0012891780
   74    5.9861044800    1.6946596680    3.0010904710
   74    9.0533213150    1.8089738030    3.0017663600
   74   -1.4636252380    4.1696678500    3.0031068070
   74    1.1955756650    4.1104036440    3.0011667340
   74    4.4547710370    4.2499966450    2.9997473980
   74    7.6431985800    4.1854359800    2.9919104760
   74   -2.8218334470    6.9251441490    2.9860160890
   74   -0.2916415900    6.6899789090    2.9998201690
   74    2.9390965320    6.8535475110    3.0002785670
   74    6.0566941910    6.9039003140    3.0036626110
   74   -4.3008962520    9.4965054720    2.9975247200
   74   -1.7135434820    9.2775033480    3.0019478890
   74    1.4909510260    9.4727121060    3.0012837080
   74    4.4903400890    9.6669587570    2.9985469120
   74    1.2473605010    0.7709214210    9.0188829230
   74    4.3575523890    0.7983300520    9.0109100910
   74    7.7109934740    1.0210810970    9.0103404200
   74   10.4408877750    1.0319474650    9.0535907880
   74   -0.2602718300    3.3511227150    9.0179682640
   74    2.8564767350    3.3663664970    9.0156135400
   74    6.2520386030    3.6106509320    9.0127734110
   74    9.0124947800    3.5065622890    9.0404246080
   74   -1.7158124010    5.8043504220    9.0138140530
   74    1.3753625010    5.9180244320    9.0158783470
   74    4.6309795910    6.1045508810    8.9322485440
   74    7.5373387650    6.0156325810    9.0663160900
   74   -3.1500459190    8.4089041340    9.0532928650
   74   -0.1001859220    8.5075593530    9.0120290300
   74    3.0869414470    8.6332828970    9.0092131380
   74    6.1265337480    8.6215029180    8.9811660010
   34    2.6842538610    1.5480777610    7.4118564880
   34    6.1163931520    1.8234586100    7.4478204500
   34    1.1773075360    4.0975436070    7.3875437820
   34    4.5610776340    4.2656899690    7.4518091690
   34   -0.3172909330    6.6640580500    7.3944832490
   34    2.9708943030    6.8522546580    7.4161949480
   34    6.3690077500    6.8828126090    7.3155985210
   34   -1.7860696170    9.2450297530    7.3989676820
   34    1.5418111600    9.5087276720    7.4481004330
   34    4.7200769290    9.7604140740    7.3656620360
   34    4.2407241810    0.7390314850    1.4035671800
   34    7.6884534680    1.0162164760    1.3477373190
   34    2.7280658210    3.2795856030    1.4041047490
   34    6.0778338720    3.4229448530    1.4050960180
   34    1.2352603810    5.8523472920    1.4032553060
   34    4.4970326940    6.0163273060    1.4195933050
   34    7.7941923330    6.0210197590    1.3187463550
   34   -0.2054475540    8.4348418440    1.4013556760
   34    3.0356759790    8.6778232480    1.4165507250
   34    6.1567031290    8.8530588760    1.3434721000
   34    2.6969792250    1.5428467880   10.6207678560
   34    6.1080492260    1.8232584770   10.5623617810
   34    1.1724133160    4.0889234230   10.6516101390
   34    4.6394944900    4.3810284110   10.5591466780
   34   -0.3039505110    6.6698141840   10.6238321170
   34    3.0543660550    6.8497118380   10.5737454580
   34   -1.7600346560    9.2644946170   10.6467571580
   34    1.5507017360    9.5100121960   10.5701365700
   34    4.7538837630    9.6116199350   10.6649389610
   34    4.2406944200    0.7394979710    4.6018038430
   34    7.6884307000    1.0162405400    4.6559893840
   34    2.7291074710    3.2796338610    4.5978680710
   34    6.0834953950    3.4278061950    4.5906236900
   34    1.2350121600    5.8530338820    4.5977170020
   34    4.4904452470    6.0123168640    4.5832572380
   34    7.8127187080    6.0118198280    4.6530023290
   34   -0.2061691230    8.4344388620    4.6033639380
   34    3.0366334030    8.6771481750    4.5830661640
   34    6.1538536180    8.8652027940    4.6511485440
 FRAMES
1      0.0000000000    0.0000000000    0.0000000000     11.8558891100    0.0000000000    0.0000000000
1      0.0000000000    0.0000000000    0.0000000000     -5.9279445550   10.2675011540    0.0000000000
1      0.0000000000    0.0000000000    0.0000000000      0.0000000000    0.0000000000   12.0084994700
1      0.0000000000    0.0000000000   12.0084994700     11.8558891100    0.0000000000   12.0084994700
1      0.0000000000    0.0000000000   12.0084994700     -5.9279445550   10.2675011540   12.0084994700
1     -5.9279445550   10.2675011540    0.0000000000      5.9279445550   10.2675011540    0.0000000000
1     -5.9279445550   10.2675011540    0.0000000000     -5.9279445550   10.2675011540   12.0084994700
1     -5.9279445550   10.2675011540   12.0084994700      5.9279445550   10.2675011540   12.0084994700
1     11.8558891100    0.0000000000    0.0000000000      5.9279445550   10.2675011540    0.0000000000
1     11.8558891100    0.0000000000    0.0000000000     11.8558891100    0.0000000000   12.0084994700
1     11.8558891100    0.0000000000   12.0084994700      5.9279445550   10.2675011540   12.0084994700
1      5.9279445550   10.2675011540    0.0000000000      5.9279445550   10.2675011540   12.0084994700
