 INFO
nunit      1    1    1
unit   cell
celltype   primcell
shape   parapipedal
 END_INFO
 DIM-GROUP
           3           1
 PRIMVEC
   12.5372549200    0.0000000000    0.0000000000
   -6.2686274600   10.8575812540    0.0000000000
    0.0000000000    0.0000000000   13.1028199700
 CONVVEC
   12.5372549200    0.0000000000    0.0000000000
   -6.2686274600   10.8575812540    0.0000000000
    0.0000000000    0.0000000000   13.1028199700
 PRIMCOORD
          82           1
 74      0.0220763020     1.9473336760     3.1266249680
 74      3.1792822730     1.9762436190     3.0927115160
 74      6.2933920040     1.9315324760     3.1672712590
 74      9.4114540470     1.9346686800     3.1493346020
 74     -1.5749244110     4.4619885190     3.1468711850
 74      1.7340742940     4.5154583120     3.1725322550
 74      4.7755615120     4.5706646880     3.3256791850
 74      7.7891280010     4.4446133780     3.2169381600
 74     -3.1684156920     7.2842139470     3.2142530640
 74      0.0193433660     7.2143345560     3.2645885300
 74      3.2310829830     7.3074766280     3.4097934910
 74      6.1540410030     7.1525778550     3.3701155960
 74     -4.6303200620     9.8761286250     3.1938316040
 74     -1.6568160820     9.8891528340     3.2125149710
 74      1.6731799250     9.9055995420     3.2791445230
 74      4.5938341070     9.8853181540     3.3041167350
 74      1.7425761540     1.0242836680    10.0734633690
 74      4.6410228350     0.7744353780    10.1253417230
 74      7.8957420800     0.9522253220     9.6911337070
 74     10.9812194700     0.9938883760     9.6333521670
 74      0.1302167450     3.7240400720     9.9146304910
 74      3.0487040190     3.6298982960    10.0751797830
 74      6.0078687340     3.6202650230     9.7461014510
 74      9.3658268580     3.4648862190     9.6740868510
 74     -1.5008550620     6.3698534940     9.8378826060
 74      1.4601852370     6.3293288910     9.8256678430
 74      4.6199917590     6.1933965650     9.8340911570
 74      7.6714827230     6.3863578600     9.8889800350
 74     -3.0125802660     9.0867387630    10.0563182310
 74     -0.0248089480     8.9969862650     9.8862926920
 74      3.1405573640     9.0803041270     9.6841726290
 74      6.3580658410     8.9138549950     9.8983816350
 34      0.4066023910     1.9789711780     8.2376905750
 34      5.9285551030     1.6128736620     8.2506452360
 34      9.4009136710     1.7758333320     7.9168781670
 34     -1.4870868800     4.5481089580     8.1941020180
 34      4.2602142950     4.3344863610     8.1470846900
 52      7.6744183490     4.6361598060     7.9486252980
 34     -3.1908631410     7.3350396850     8.3163796420
 34     -0.0343114100     7.2736980680     8.1202502100
 34      3.1346386180     7.1183063410     8.1505648470
 34     -4.3626539720    10.1272087910     8.3595089790
 34      1.3773147130     9.9624810380     8.1229707170
 52      4.9756916010     9.8425406890     7.9012210830
 34      1.6001611230     0.8991874230     1.5150851750
 34      4.7205091070     0.8970144970     1.5470948980
 34      7.8828382370     0.8614837320     1.5693867960
 34     10.9448383080     0.8450975210     1.5751269500
 34      3.4179386790     3.8327838830     1.4739162450
 34      9.3519679200     3.6665604110     1.4573545280
 34     -1.5315107800     6.3158750570     1.5479469280
 34      1.7514251610     6.4442942280     1.6474763330
 34      7.5784931370     6.2317157770     1.6013891800
 34      0.0524129970     9.0206623390     1.6301540030
 34      6.1068803690     8.8931448390     1.6366769980
 34     -0.1276042350     1.8464250250    11.4799996920
 34      3.2745730010     1.9404278190    11.7942345970
 34      6.3840586930     1.8761837940    11.4598452070
 34     -1.6848338280     4.4287368920    11.4098148720
 52      1.5358909820     4.7067329320    11.9285125160
 34      7.7597556700     4.4039861200    11.3514054650
 34     -3.1516107800     7.1135001850    11.5437979290
 34      3.0512187690     7.2958743820    11.3923101630
 34      6.0894967770     7.1045995010    11.5885091610
 34     -4.7321987300     9.9335353730    11.6253046420
 52     -1.3970947700     9.7641513030    11.9892765880
 34      1.6739172460    10.0244740170    11.3971887230
 34      4.6849064950    10.0543590070    11.3226117090
 34      1.5977138560     0.9752217700     4.7265326950
 34      4.6730924100     0.9703390260     4.7575153620
 34      7.8501650390     0.9794455660     4.8119729660
 34     10.9946253190     1.0190991020     4.7983413110
 52      0.0834050110     3.6579390680     5.0915682250
 52      6.2308585520     3.5703915170     5.2172939510
 34     -1.6663145730     6.2053311280     4.8265143500
 34      1.6325582900     6.2415423000     4.9068043980
 34      4.6429288010     6.2306700710     5.0789550010
 34      7.9025405620     6.2264360020     4.8758764140
 52     -3.1427035070     9.0328312120     5.1939900490
 34     -0.0232270240     9.0927316300     4.8715733200
 52      3.1107574300     9.0726094100     5.3184799030
 34      6.3019599550     9.1016808560     4.8860345450
 CONVCOORD
          82           1
 74      0.0220763020     1.9473336760     3.1266249680
 74      3.1792822730     1.9762436190     3.0927115160
 74      6.2933920040     1.9315324760     3.1672712590
 74      9.4114540470     1.9346686800     3.1493346020
 74     -1.5749244110     4.4619885190     3.1468711850
 74      1.7340742940     4.5154583120     3.1725322550
 74      4.7755615120     4.5706646880     3.3256791850
 74      7.7891280010     4.4446133780     3.2169381600
 74     -3.1684156920     7.2842139470     3.2142530640
 74      0.0193433660     7.2143345560     3.2645885300
 74      3.2310829830     7.3074766280     3.4097934910
 74      6.1540410030     7.1525778550     3.3701155960
 74     -4.6303200620     9.8761286250     3.1938316040
 74     -1.6568160820     9.8891528340     3.2125149710
 74      1.6731799250     9.9055995420     3.2791445230
 74      4.5938341070     9.8853181540     3.3041167350
 74      1.7425761540     1.0242836680    10.0734633690
 74      4.6410228350     0.7744353780    10.1253417230
 74      7.8957420800     0.9522253220     9.6911337070
 74     10.9812194700     0.9938883760     9.6333521670
 74      0.1302167450     3.7240400720     9.9146304910
 74      3.0487040190     3.6298982960    10.0751797830
 74      6.0078687340     3.6202650230     9.7461014510
 74      9.3658268580     3.4648862190     9.6740868510
 74     -1.5008550620     6.3698534940     9.8378826060
 74      1.4601852370     6.3293288910     9.8256678430
 74      4.6199917590     6.1933965650     9.8340911570
 74      7.6714827230     6.3863578600     9.8889800350
 74     -3.0125802660     9.0867387630    10.0563182310
 74     -0.0248089480     8.9969862650     9.8862926920
 74      3.1405573640     9.0803041270     9.6841726290
 74      6.3580658410     8.9138549950     9.8983816350
 34      0.4066023910     1.9789711780     8.2376905750
 34      5.9285551030     1.6128736620     8.2506452360
 34      9.4009136710     1.7758333320     7.9168781670
 34     -1.4870868800     4.5481089580     8.1941020180
 34      4.2602142950     4.3344863610     8.1470846900
 52      7.6744183490     4.6361598060     7.9486252980
 34     -3.1908631410     7.3350396850     8.3163796420
 34     -0.0343114100     7.2736980680     8.1202502100
 34      3.1346386180     7.1183063410     8.1505648470
 34     -4.3626539720    10.1272087910     8.3595089790
 34      1.3773147130     9.9624810380     8.1229707170
 52      4.9756916010     9.8425406890     7.9012210830
 34      1.6001611230     0.8991874230     1.5150851750
 34      4.7205091070     0.8970144970     1.5470948980
 34      7.8828382370     0.8614837320     1.5693867960
 34     10.9448383080     0.8450975210     1.5751269500
 34      3.4179386790     3.8327838830     1.4739162450
 34      9.3519679200     3.6665604110     1.4573545280
 34     -1.5315107800     6.3158750570     1.5479469280
 34      1.7514251610     6.4442942280     1.6474763330
 34      7.5784931370     6.2317157770     1.6013891800
 34      0.0524129970     9.0206623390     1.6301540030
 34      6.1068803690     8.8931448390     1.6366769980
 34     -0.1276042350     1.8464250250    11.4799996920
 34      3.2745730010     1.9404278190    11.7942345970
 34      6.3840586930     1.8761837940    11.4598452070
 34     -1.6848338280     4.4287368920    11.4098148720
 52      1.5358909820     4.7067329320    11.9285125160
 34      7.7597556700     4.4039861200    11.3514054650
 34     -3.1516107800     7.1135001850    11.5437979290
 34      3.0512187690     7.2958743820    11.3923101630
 34      6.0894967770     7.1045995010    11.5885091610
 34     -4.7321987300     9.9335353730    11.6253046420
 52     -1.3970947700     9.7641513030    11.9892765880
 34      1.6739172460    10.0244740170    11.3971887230
 34      4.6849064950    10.0543590070    11.3226117090
 34      1.5977138560     0.9752217700     4.7265326950
 34      4.6730924100     0.9703390260     4.7575153620
 34      7.8501650390     0.9794455660     4.8119729660
 34     10.9946253190     1.0190991020     4.7983413110
 52      0.0834050110     3.6579390680     5.0915682250
 52      6.2308585520     3.5703915170     5.2172939510
 34     -1.6663145730     6.2053311280     4.8265143500
 34      1.6325582900     6.2415423000     4.9068043980
 34      4.6429288010     6.2306700710     5.0789550010
 34      7.9025405620     6.2264360020     4.8758764140
 52     -3.1427035070     9.0328312120     5.1939900490
 34     -0.0232270240     9.0927316300     4.8715733200
 52      3.1107574300     9.0726094100     5.3184799030
 34      6.3019599550     9.1016808560     4.8860345450
 RECIP-PRIMVEC
    0.0797622770    0.0460507721   -0.0000000000

    0.0000000000    0.0921015442    0.0000000000

    0.0000000000   -0.0000000000    0.0763194490

 RECIP-CONVVEC
    0.0797622770    0.0460507721   -0.0000000000

    0.0000000000    0.0921015442    0.0000000000

    0.0000000000   -0.0000000000    0.0763194490

 WIGNER-SEITZ-PRIMCELL
           4
 -0.6268627E+01 -0.3619194E+01 -0.6551410E+01  -0.5000000E+00 -0.8660254E+00 -0.0000000E+00
 -0.0000000E+00 -0.7238388E+01 -0.6551410E+01  -0.5000000E+00 -0.8660254E+00 -0.0000000E+00
  0.0000000E+00 -0.7238388E+01  0.6551410E+01  -0.5000000E+00 -0.8660254E+00 -0.0000000E+00
 -0.6268627E+01 -0.3619194E+01  0.6551410E+01  -0.5000000E+00 -0.8660254E+00 -0.0000000E+00
           4
 -0.6268627E+01 -0.3619194E+01  0.6551410E+01  -0.1000000E+01  0.0000000E+00  0.0000000E+00
 -0.6268627E+01  0.3619194E+01  0.6551410E+01  -0.1000000E+01  0.0000000E+00  0.0000000E+00
 -0.6268627E+01  0.3619194E+01 -0.6551410E+01  -0.1000000E+01  0.0000000E+00  0.0000000E+00
 -0.6268627E+01 -0.3619194E+01 -0.6551410E+01  -0.1000000E+01  0.0000000E+00  0.0000000E+00
           4
 -0.0000000E+00 -0.7238388E+01 -0.6551410E+01   0.5000000E+00 -0.8660254E+00  0.7491756E-16
  0.6268627E+01 -0.3619194E+01 -0.6551410E+01   0.5000000E+00 -0.8660254E+00  0.7491756E-16
  0.6268627E+01 -0.3619194E+01  0.6551410E+01   0.5000000E+00 -0.8660254E+00  0.7491756E-16
  0.0000000E+00 -0.7238388E+01  0.6551410E+01   0.5000000E+00 -0.8660254E+00  0.7491756E-16
           6
 -0.6268627E+01 -0.3619194E+01 -0.6551410E+01   0.1565943E-15  0.0000000E+00 -0.1000000E+01
 -0.6268627E+01  0.3619194E+01 -0.6551410E+01   0.1565943E-15  0.0000000E+00 -0.1000000E+01
  0.0000000E+00  0.7238388E+01 -0.6551410E+01   0.1565943E-15  0.0000000E+00 -0.1000000E+01
  0.6268627E+01  0.3619194E+01 -0.6551410E+01   0.1565943E-15  0.0000000E+00 -0.1000000E+01
  0.6268627E+01 -0.3619194E+01 -0.6551410E+01   0.1565943E-15  0.0000000E+00 -0.1000000E+01
 -0.0000000E+00 -0.7238388E+01 -0.6551410E+01   0.1565943E-15  0.0000000E+00 -0.1000000E+01
           6
  0.0000000E+00 -0.7238388E+01  0.6551410E+01  -0.1565943E-15 -0.0000000E+00  0.1000000E+01
  0.6268627E+01 -0.3619194E+01  0.6551410E+01  -0.1565943E-15 -0.0000000E+00  0.1000000E+01
  0.6268627E+01  0.3619194E+01  0.6551410E+01  -0.1565943E-15 -0.0000000E+00  0.1000000E+01
 -0.1019835E-14  0.7238388E+01  0.6551410E+01  -0.1565943E-15 -0.0000000E+00  0.1000000E+01
 -0.6268627E+01  0.3619194E+01  0.6551410E+01  -0.1565943E-15 -0.0000000E+00  0.1000000E+01
 -0.6268627E+01 -0.3619194E+01  0.6551410E+01  -0.1565943E-15 -0.0000000E+00  0.1000000E+01
           4
 -0.6268627E+01  0.3619194E+01  0.6551410E+01  -0.5000000E+00  0.8660254E+00  0.0000000E+00
 -0.0000000E+00  0.7238388E+01  0.6551410E+01  -0.5000000E+00  0.8660254E+00  0.0000000E+00
 -0.0000000E+00  0.7238388E+01 -0.6551410E+01  -0.5000000E+00  0.8660254E+00  0.0000000E+00
 -0.6268627E+01  0.3619194E+01 -0.6551410E+01  -0.5000000E+00  0.8660254E+00  0.0000000E+00
           4
  0.6268627E+01 -0.3619194E+01 -0.6551410E+01   0.1000000E+01 -0.0000000E+00 -0.0000000E+00
  0.6268627E+01  0.3619194E+01 -0.6551410E+01   0.1000000E+01 -0.0000000E+00 -0.0000000E+00
  0.6268627E+01  0.3619194E+01  0.6551410E+01   0.1000000E+01 -0.0000000E+00 -0.0000000E+00
  0.6268627E+01 -0.3619194E+01  0.6551410E+01   0.1000000E+01 -0.0000000E+00 -0.0000000E+00
           4
  0.1019835E-14  0.7238388E+01  0.6551410E+01   0.5000000E+00  0.8660254E+00 -0.4459105E-16
  0.6268627E+01  0.3619194E+01  0.6551410E+01   0.5000000E+00  0.8660254E+00 -0.4459105E-16
  0.6268627E+01  0.3619194E+01 -0.6551410E+01   0.5000000E+00  0.8660254E+00 -0.4459105E-16
 -0.0000000E+00  0.7238388E+01 -0.6551410E+01   0.5000000E+00  0.8660254E+00 -0.4459105E-16
 WIGNER-SEITZ-PRIMCELL_END
 WIGNER-SEITZ-CONVCELL
           4
 -0.6268627E+01 -0.3619194E+01 -0.6551410E+01  -0.5000000E+00 -0.8660254E+00 -0.0000000E+00
 -0.0000000E+00 -0.7238388E+01 -0.6551410E+01  -0.5000000E+00 -0.8660254E+00 -0.0000000E+00
  0.0000000E+00 -0.7238388E+01  0.6551410E+01  -0.5000000E+00 -0.8660254E+00 -0.0000000E+00
 -0.6268627E+01 -0.3619194E+01  0.6551410E+01  -0.5000000E+00 -0.8660254E+00 -0.0000000E+00
           4
 -0.6268627E+01 -0.3619194E+01  0.6551410E+01  -0.1000000E+01  0.0000000E+00  0.0000000E+00
 -0.6268627E+01  0.3619194E+01  0.6551410E+01  -0.1000000E+01  0.0000000E+00  0.0000000E+00
 -0.6268627E+01  0.3619194E+01 -0.6551410E+01  -0.1000000E+01  0.0000000E+00  0.0000000E+00
 -0.6268627E+01 -0.3619194E+01 -0.6551410E+01  -0.1000000E+01  0.0000000E+00  0.0000000E+00
           4
 -0.0000000E+00 -0.7238388E+01 -0.6551410E+01   0.5000000E+00 -0.8660254E+00  0.7491756E-16
  0.6268627E+01 -0.3619194E+01 -0.6551410E+01   0.5000000E+00 -0.8660254E+00  0.7491756E-16
  0.6268627E+01 -0.3619194E+01  0.6551410E+01   0.5000000E+00 -0.8660254E+00  0.7491756E-16
  0.0000000E+00 -0.7238388E+01  0.6551410E+01   0.5000000E+00 -0.8660254E+00  0.7491756E-16
           6
 -0.6268627E+01 -0.3619194E+01 -0.6551410E+01   0.1565943E-15  0.0000000E+00 -0.1000000E+01
 -0.6268627E+01  0.3619194E+01 -0.6551410E+01   0.1565943E-15  0.0000000E+00 -0.1000000E+01
  0.0000000E+00  0.7238388E+01 -0.6551410E+01   0.1565943E-15  0.0000000E+00 -0.1000000E+01
  0.6268627E+01  0.3619194E+01 -0.6551410E+01   0.1565943E-15  0.0000000E+00 -0.1000000E+01
  0.6268627E+01 -0.3619194E+01 -0.6551410E+01   0.1565943E-15  0.0000000E+00 -0.1000000E+01
 -0.0000000E+00 -0.7238388E+01 -0.6551410E+01   0.1565943E-15  0.0000000E+00 -0.1000000E+01
           6
  0.0000000E+00 -0.7238388E+01  0.6551410E+01  -0.1565943E-15 -0.0000000E+00  0.1000000E+01
  0.6268627E+01 -0.3619194E+01  0.6551410E+01  -0.1565943E-15 -0.0000000E+00  0.1000000E+01
  0.6268627E+01  0.3619194E+01  0.6551410E+01  -0.1565943E-15 -0.0000000E+00  0.1000000E+01
 -0.1019835E-14  0.7238388E+01  0.6551410E+01  -0.1565943E-15 -0.0000000E+00  0.1000000E+01
 -0.6268627E+01  0.3619194E+01  0.6551410E+01  -0.1565943E-15 -0.0000000E+00  0.1000000E+01
 -0.6268627E+01 -0.3619194E+01  0.6551410E+01  -0.1565943E-15 -0.0000000E+00  0.1000000E+01
           4
 -0.6268627E+01  0.3619194E+01  0.6551410E+01  -0.5000000E+00  0.8660254E+00  0.0000000E+00
 -0.0000000E+00  0.7238388E+01  0.6551410E+01  -0.5000000E+00  0.8660254E+00  0.0000000E+00
 -0.0000000E+00  0.7238388E+01 -0.6551410E+01  -0.5000000E+00  0.8660254E+00  0.0000000E+00
 -0.6268627E+01  0.3619194E+01 -0.6551410E+01  -0.5000000E+00  0.8660254E+00  0.0000000E+00
           4
  0.6268627E+01 -0.3619194E+01 -0.6551410E+01   0.1000000E+01 -0.0000000E+00 -0.0000000E+00
  0.6268627E+01  0.3619194E+01 -0.6551410E+01   0.1000000E+01 -0.0000000E+00 -0.0000000E+00
  0.6268627E+01  0.3619194E+01  0.6551410E+01   0.1000000E+01 -0.0000000E+00 -0.0000000E+00
  0.6268627E+01 -0.3619194E+01  0.6551410E+01   0.1000000E+01 -0.0000000E+00 -0.0000000E+00
           4
  0.1019835E-14  0.7238388E+01  0.6551410E+01   0.5000000E+00  0.8660254E+00 -0.4459105E-16
  0.6268627E+01  0.3619194E+01  0.6551410E+01   0.5000000E+00  0.8660254E+00 -0.4459105E-16
  0.6268627E+01  0.3619194E+01 -0.6551410E+01   0.5000000E+00  0.8660254E+00 -0.4459105E-16
 -0.0000000E+00  0.7238388E+01 -0.6551410E+01   0.5000000E+00  0.8660254E+00 -0.4459105E-16
 WIGNER-SEITZ-CONVCELL_END
 BRILLOUIN-ZONE-PRIMCELL
           4
 -0.5317485E-01  0.6043112E-17  0.3815972E-01  -0.8660254E+00 -0.5000000E+00  0.7918180E-16
 -0.5317485E-01 -0.6043112E-17 -0.3815972E-01  -0.8660254E+00 -0.5000000E+00  0.7918180E-16
 -0.2658743E-01 -0.4605077E-01 -0.3815972E-01  -0.8660254E+00 -0.5000000E+00  0.7918180E-16
 -0.2658743E-01 -0.4605077E-01  0.3815972E-01  -0.8660254E+00 -0.5000000E+00  0.7918180E-16
           4
 -0.2658743E-01  0.4605077E-01  0.3815972E-01  -0.8660254E+00  0.5000000E+00  0.3959090E-16
 -0.2658743E-01  0.4605077E-01 -0.3815972E-01  -0.8660254E+00  0.5000000E+00  0.3959090E-16
 -0.5317485E-01 -0.6043112E-17 -0.3815972E-01  -0.8660254E+00  0.5000000E+00  0.3959090E-16
 -0.5317485E-01 -0.1208622E-16  0.3815972E-01  -0.8660254E+00  0.5000000E+00  0.3959090E-16
           4
 -0.2658743E-01 -0.4605077E-01  0.3815972E-01  -0.0000000E+00 -0.1000000E+01 -0.0000000E+00
 -0.2658743E-01 -0.4605077E-01 -0.3815972E-01  -0.0000000E+00 -0.1000000E+01 -0.0000000E+00
  0.2658743E-01 -0.4605077E-01 -0.3815972E-01  -0.0000000E+00 -0.1000000E+01 -0.0000000E+00
  0.2658743E-01 -0.4605077E-01  0.3815972E-01  -0.0000000E+00 -0.1000000E+01 -0.0000000E+00
           6
 -0.5317485E-01 -0.6043112E-17 -0.3815972E-01   0.0000000E+00  0.0000000E+00 -0.1000000E+01
 -0.2658743E-01  0.4605077E-01 -0.3815972E-01   0.0000000E+00  0.0000000E+00 -0.1000000E+01
  0.2658743E-01  0.4605077E-01 -0.3815972E-01   0.0000000E+00  0.0000000E+00 -0.1000000E+01
  0.5317485E-01 -0.6043112E-17 -0.3815972E-01   0.0000000E+00  0.0000000E+00 -0.1000000E+01
  0.2658743E-01 -0.4605077E-01 -0.3815972E-01   0.0000000E+00  0.0000000E+00 -0.1000000E+01
 -0.2658743E-01 -0.4605077E-01 -0.3815972E-01   0.0000000E+00  0.0000000E+00 -0.1000000E+01
           6
 -0.2658743E-01 -0.4605077E-01  0.3815972E-01  -0.0000000E+00 -0.1771035E-15  0.1000000E+01
  0.2658743E-01 -0.4605077E-01  0.3815972E-01  -0.0000000E+00 -0.1771035E-15  0.1000000E+01
  0.5317485E-01  0.0000000E+00  0.3815972E-01  -0.0000000E+00 -0.1771035E-15  0.1000000E+01
  0.2658743E-01  0.4605077E-01  0.3815972E-01  -0.0000000E+00 -0.1771035E-15  0.1000000E+01
 -0.2658743E-01  0.4605077E-01  0.3815972E-01  -0.0000000E+00 -0.1771035E-15  0.1000000E+01
 -0.5317485E-01 -0.0000000E+00  0.3815972E-01  -0.0000000E+00 -0.1771035E-15  0.1000000E+01
           4
 -0.2658743E-01  0.4605077E-01  0.3815972E-01   0.0000000E+00  0.1000000E+01 -0.7873823E-16
  0.2658743E-01  0.4605077E-01  0.3815972E-01   0.0000000E+00  0.1000000E+01 -0.7873823E-16
  0.2658743E-01  0.4605077E-01 -0.3815972E-01   0.0000000E+00  0.1000000E+01 -0.7873823E-16
 -0.2658743E-01  0.4605077E-01 -0.3815972E-01   0.0000000E+00  0.1000000E+01 -0.7873823E-16
           4
  0.2658743E-01 -0.4605077E-01 -0.3815972E-01   0.8660254E+00 -0.5000000E+00 -0.7918180E-16
  0.5317485E-01  0.6043112E-17 -0.3815972E-01   0.8660254E+00 -0.5000000E+00 -0.7918180E-16
  0.5317485E-01 -0.6043112E-17  0.3815972E-01   0.8660254E+00 -0.5000000E+00 -0.7918180E-16
  0.2658743E-01 -0.4605077E-01  0.3815972E-01   0.8660254E+00 -0.5000000E+00 -0.7918180E-16
           4
  0.2658743E-01  0.4605077E-01  0.3815972E-01   0.8660254E+00  0.5000000E+00  0.3959090E-16
  0.5317485E-01  0.0000000E+00  0.3815972E-01   0.8660254E+00  0.5000000E+00  0.3959090E-16
  0.5317485E-01  0.6043112E-17 -0.3815972E-01   0.8660254E+00  0.5000000E+00  0.3959090E-16
  0.2658743E-01  0.4605077E-01 -0.3815972E-01   0.8660254E+00  0.5000000E+00  0.3959090E-16
 BRILLOUIN-ZONE-PRIMCELL_END
 BRILLOUIN-ZONE-CONVCELL
           4
 -0.5317485E-01  0.6043112E-17  0.3815972E-01  -0.8660254E+00 -0.5000000E+00  0.7918180E-16
 -0.5317485E-01 -0.6043112E-17 -0.3815972E-01  -0.8660254E+00 -0.5000000E+00  0.7918180E-16
 -0.2658743E-01 -0.4605077E-01 -0.3815972E-01  -0.8660254E+00 -0.5000000E+00  0.7918180E-16
 -0.2658743E-01 -0.4605077E-01  0.3815972E-01  -0.8660254E+00 -0.5000000E+00  0.7918180E-16
           4
 -0.2658743E-01  0.4605077E-01  0.3815972E-01  -0.8660254E+00  0.5000000E+00  0.3959090E-16
 -0.2658743E-01  0.4605077E-01 -0.3815972E-01  -0.8660254E+00  0.5000000E+00  0.3959090E-16
 -0.5317485E-01 -0.6043112E-17 -0.3815972E-01  -0.8660254E+00  0.5000000E+00  0.3959090E-16
 -0.5317485E-01 -0.1208622E-16  0.3815972E-01  -0.8660254E+00  0.5000000E+00  0.3959090E-16
           4
 -0.2658743E-01 -0.4605077E-01  0.3815972E-01  -0.0000000E+00 -0.1000000E+01 -0.0000000E+00
 -0.2658743E-01 -0.4605077E-01 -0.3815972E-01  -0.0000000E+00 -0.1000000E+01 -0.0000000E+00
  0.2658743E-01 -0.4605077E-01 -0.3815972E-01  -0.0000000E+00 -0.1000000E+01 -0.0000000E+00
  0.2658743E-01 -0.4605077E-01  0.3815972E-01  -0.0000000E+00 -0.1000000E+01 -0.0000000E+00
           6
 -0.5317485E-01 -0.6043112E-17 -0.3815972E-01   0.0000000E+00  0.0000000E+00 -0.1000000E+01
 -0.2658743E-01  0.4605077E-01 -0.3815972E-01   0.0000000E+00  0.0000000E+00 -0.1000000E+01
  0.2658743E-01  0.4605077E-01 -0.3815972E-01   0.0000000E+00  0.0000000E+00 -0.1000000E+01
  0.5317485E-01 -0.6043112E-17 -0.3815972E-01   0.0000000E+00  0.0000000E+00 -0.1000000E+01
  0.2658743E-01 -0.4605077E-01 -0.3815972E-01   0.0000000E+00  0.0000000E+00 -0.1000000E+01
 -0.2658743E-01 -0.4605077E-01 -0.3815972E-01   0.0000000E+00  0.0000000E+00 -0.1000000E+01
           6
 -0.2658743E-01 -0.4605077E-01  0.3815972E-01  -0.0000000E+00 -0.1771035E-15  0.1000000E+01
  0.2658743E-01 -0.4605077E-01  0.3815972E-01  -0.0000000E+00 -0.1771035E-15  0.1000000E+01
  0.5317485E-01  0.0000000E+00  0.3815972E-01  -0.0000000E+00 -0.1771035E-15  0.1000000E+01
  0.2658743E-01  0.4605077E-01  0.3815972E-01  -0.0000000E+00 -0.1771035E-15  0.1000000E+01
 -0.2658743E-01  0.4605077E-01  0.3815972E-01  -0.0000000E+00 -0.1771035E-15  0.1000000E+01
 -0.5317485E-01 -0.0000000E+00  0.3815972E-01  -0.0000000E+00 -0.1771035E-15  0.1000000E+01
           4
 -0.2658743E-01  0.4605077E-01  0.3815972E-01   0.0000000E+00  0.1000000E+01 -0.7873823E-16
  0.2658743E-01  0.4605077E-01  0.3815972E-01   0.0000000E+00  0.1000000E+01 -0.7873823E-16
  0.2658743E-01  0.4605077E-01 -0.3815972E-01   0.0000000E+00  0.1000000E+01 -0.7873823E-16
 -0.2658743E-01  0.4605077E-01 -0.3815972E-01   0.0000000E+00  0.1000000E+01 -0.7873823E-16
           4
  0.2658743E-01 -0.4605077E-01 -0.3815972E-01   0.8660254E+00 -0.5000000E+00 -0.7918180E-16
  0.5317485E-01  0.6043112E-17 -0.3815972E-01   0.8660254E+00 -0.5000000E+00 -0.7918180E-16
  0.5317485E-01 -0.6043112E-17  0.3815972E-01   0.8660254E+00 -0.5000000E+00 -0.7918180E-16
  0.2658743E-01 -0.4605077E-01  0.3815972E-01   0.8660254E+00 -0.5000000E+00 -0.7918180E-16
           4
  0.2658743E-01  0.4605077E-01  0.3815972E-01   0.8660254E+00  0.5000000E+00  0.3959090E-16
  0.5317485E-01  0.0000000E+00  0.3815972E-01   0.8660254E+00  0.5000000E+00  0.3959090E-16
  0.5317485E-01  0.6043112E-17 -0.3815972E-01   0.8660254E+00  0.5000000E+00  0.3959090E-16
  0.2658743E-01  0.4605077E-01 -0.3815972E-01   0.8660254E+00  0.5000000E+00  0.3959090E-16
 BRILLOUIN-ZONE-CONVCELL_END
 ATOMS
   74    0.0220763020    1.9473336760    3.1266249680
   74    3.1792822730    1.9762436190    3.0927115160
   74    6.2933920040    1.9315324760    3.1672712590
   74    9.4114540470    1.9346686800    3.1493346020
   74   -1.5749244110    4.4619885190    3.1468711850
   74    1.7340742940    4.5154583120    3.1725322550
   74    4.7755615120    4.5706646880    3.3256791850
   74    7.7891280010    4.4446133780    3.2169381600
   74   -3.1684156920    7.2842139470    3.2142530640
   74    0.0193433660    7.2143345560    3.2645885300
   74    3.2310829830    7.3074766280    3.4097934910
   74    6.1540410030    7.1525778550    3.3701155960
   74   -4.6303200620    9.8761286250    3.1938316040
   74   -1.6568160820    9.8891528340    3.2125149710
   74    1.6731799250    9.9055995420    3.2791445230
   74    4.5938341070    9.8853181540    3.3041167350
   74    1.7425761540    1.0242836680   10.0734633690
   74    4.6410228350    0.7744353780   10.1253417230
   74    7.8957420800    0.9522253220    9.6911337070
   74   10.9812194700    0.9938883760    9.6333521670
   74    0.1302167450    3.7240400720    9.9146304910
   74    3.0487040190    3.6298982960   10.0751797830
   74    6.0078687340    3.6202650230    9.7461014510
   74    9.3658268580    3.4648862190    9.6740868510
   74   -1.5008550620    6.3698534940    9.8378826060
   74    1.4601852370    6.3293288910    9.8256678430
   74    4.6199917590    6.1933965650    9.8340911570
   74    7.6714827230    6.3863578600    9.8889800350
   74   -3.0125802660    9.0867387630   10.0563182310
   74   -0.0248089480    8.9969862650    9.8862926920
   74    3.1405573640    9.0803041270    9.6841726290
   74    6.3580658410    8.9138549950    9.8983816350
   34    0.4066023910    1.9789711780    8.2376905750
   34    5.9285551030    1.6128736620    8.2506452360
   34    9.4009136710    1.7758333320    7.9168781670
   34   -1.4870868800    4.5481089580    8.1941020180
   34    4.2602142950    4.3344863610    8.1470846900
   52    7.6744183490    4.6361598060    7.9486252980
   34   -3.1908631410    7.3350396850    8.3163796420
   34   -0.0343114100    7.2736980680    8.1202502100
   34    3.1346386180    7.1183063410    8.1505648470
   34   -4.3626539720   10.1272087910    8.3595089790
   34    1.3773147130    9.9624810380    8.1229707170
   52    4.9756916010    9.8425406890    7.9012210830
   34    1.6001611230    0.8991874230    1.5150851750
   34    4.7205091070    0.8970144970    1.5470948980
   34    7.8828382370    0.8614837320    1.5693867960
   34   10.9448383080    0.8450975210    1.5751269500
   34    3.4179386790    3.8327838830    1.4739162450
   34    9.3519679200    3.6665604110    1.4573545280
   34   -1.5315107800    6.3158750570    1.5479469280
   34    1.7514251610    6.4442942280    1.6474763330
   34    7.5784931370    6.2317157770    1.6013891800
   34    0.0524129970    9.0206623390    1.6301540030
   34    6.1068803690    8.8931448390    1.6366769980
   34   -0.1276042350    1.8464250250   11.4799996920
   34    3.2745730010    1.9404278190   11.7942345970
   34    6.3840586930    1.8761837940   11.4598452070
   34   -1.6848338280    4.4287368920   11.4098148720
   52    1.5358909820    4.7067329320   11.9285125160
   34    7.7597556700    4.4039861200   11.3514054650
   34   -3.1516107800    7.1135001850   11.5437979290
   34    3.0512187690    7.2958743820   11.3923101630
   34    6.0894967770    7.1045995010   11.5885091610
   34   -4.7321987300    9.9335353730   11.6253046420
   52   -1.3970947700    9.7641513030   11.9892765880
   34    1.6739172460   10.0244740170   11.3971887230
   34    4.6849064950   10.0543590070   11.3226117090
   34    1.5977138560    0.9752217700    4.7265326950
   34    4.6730924100    0.9703390260    4.7575153620
   34    7.8501650390    0.9794455660    4.8119729660
   34   10.9946253190    1.0190991020    4.7983413110
   52    0.0834050110    3.6579390680    5.0915682250
   52    6.2308585520    3.5703915170    5.2172939510
   34   -1.6663145730    6.2053311280    4.8265143500
   34    1.6325582900    6.2415423000    4.9068043980
   34    4.6429288010    6.2306700710    5.0789550010
   34    7.9025405620    6.2264360020    4.8758764140
   52   -3.1427035070    9.0328312120    5.1939900490
   34   -0.0232270240    9.0927316300    4.8715733200
   52    3.1107574300    9.0726094100    5.3184799030
   34    6.3019599550    9.1016808560    4.8860345450
 FRAMES
1      0.0000000000    0.0000000000    0.0000000000     12.5372549200    0.0000000000    0.0000000000
1      0.0000000000    0.0000000000    0.0000000000     -6.2686274600   10.8575812540    0.0000000000
1      0.0000000000    0.0000000000    0.0000000000      0.0000000000    0.0000000000   13.1028199700
1      0.0000000000    0.0000000000   13.1028199700     12.5372549200    0.0000000000   13.1028199700
1      0.0000000000    0.0000000000   13.1028199700     -6.2686274600   10.8575812540   13.1028199700
1     -6.2686274600   10.8575812540    0.0000000000      6.2686274600   10.8575812540    0.0000000000
1     -6.2686274600   10.8575812540    0.0000000000     -6.2686274600   10.8575812540   13.1028199700
1     -6.2686274600   10.8575812540   13.1028199700      6.2686274600   10.8575812540   13.1028199700
1     12.5372549200    0.0000000000    0.0000000000      6.2686274600   10.8575812540    0.0000000000
1     12.5372549200    0.0000000000    0.0000000000     12.5372549200    0.0000000000   13.1028199700
1     12.5372549200    0.0000000000   13.1028199700      6.2686274600   10.8575812540   13.1028199700
1      6.2686274600   10.8575812540    0.0000000000      6.2686274600   10.8575812540   13.1028199700
