 INFO
nunit      1    1    1
unit   cell
celltype   convcell
shape   parapipedal
 END_INFO
 DIM-GROUP
           3           9
 PRIMVEC
   11.8434111300    0.0000000000    0.0000000000
   -5.9217055650   10.2566949060    0.0000000000
    0.0000000000    0.0000000000   13.0921858400
 CONVVEC
   11.8434111300    0.0000000000    0.0000000000
   -5.9217055650   10.2566949060    0.0000000000
    0.0000000000    0.0000000000   13.0921858400
 PRIMCOORD
          71           1
 74     -0.0671368390     1.7435244480     3.2535317620
 74      2.6919614390     1.5360266480     3.2657247560
 74      5.9885773930     1.7060176810     3.2227565010
 74      9.1006423110     1.8668428550     3.1986039760
 74     -1.4934238130     4.2022436600     3.2665192800
 74      1.1682057830     4.0857724270     3.2564554690
 74      4.4352700540     4.2382633910     3.2436530270
 74      7.6537428240     4.2009602020     3.2339191670
 74     -2.8261364950     6.9255388120     3.2361867650
 74     -0.2863725240     6.6923037180     3.2546828190
 74      2.9136197750     6.8065457910     3.2324243190
 74      6.0813905730     6.8998558490     3.2537444850
 74     -4.2756556560     9.4659977890     3.2521695310
 74     -1.6885447390     9.2823415440     3.2631469840
 74      1.4929395860     9.4711581390     3.1976125800
 74      4.5719682040     9.6881331140     3.2173400900
 74      1.2437045720     0.7440395720     9.8501568250
 74      4.3007762700     0.7791417020     9.8385812660
 74      7.6939006750     1.0149511760     9.8519686540
 74     10.3961779910     1.0376804640     9.8979934900
 74     -0.2712010360     3.3332548380     9.8596542790
 74      2.7818016560     3.3351961780     9.8517443210
 74      6.3077828580     3.6108993120     9.8721689800
 74      8.9690301770     3.4812173440     9.9135608850
 74     -1.7416959680     5.8380919670     9.8464276250
 74      1.3210539960     5.8817594530     9.8580425780
 74      4.7041007810     6.1379521530     9.8191810970
 74      7.5167222860     6.0093126540     9.9444848900
 74     -3.1523083200     8.4061903730     9.8829974110
 74     -0.1339138640     8.4667366870     9.8472944110
 74      3.1121321330     8.6551693020     9.8510615920
 74      6.1043432480     8.6204778920     9.8203439110
 34      2.6395932370     1.5230397460     8.0361516710
 34      6.0800856200     1.8036435280     8.1262067680
 34      1.1314056070     4.0759306530     8.0135935330
 52      4.5618709110     4.2483623940     7.8984670920
 34     -0.3530079540     6.6415094760     8.0089845780
 52      2.9708493650     6.8210963040     7.8729720980
 34      6.4277689090     6.9043574240     7.9482989790
 34     -1.8034819250     9.2152539030     8.0192989270
 34      1.5046206330     9.4915029660     8.1273200740
 34      4.7666936330     9.8002036340     7.9926319690
 34      4.2556056190     0.7570574390     1.4767889120
 34      7.6715742710     1.0240848270     1.3762869730
 34      2.7288763570     3.2841966660     1.4844338900
 34      6.0596011750     3.4542884940     1.4614770250
 34      1.2260733620     5.8301263560     1.4679127470
 34      4.5193564650     6.0105665070     1.4884340770
 34      7.7852379580     6.0110057130     1.3609845510
 34     -0.1927925540     8.4319189550     1.4607698780
 34      3.0566334010     8.6311900980     1.4833264780
 34      6.1812608840     8.8069900640     1.3922579180
 34      2.6599006550     1.5157044060    11.6568149100
 34      6.0762672840     1.8037901370    11.5688248840
 34      1.1375858750     4.0783092990    11.7035445310
 34      4.6223754730     4.3546307560    11.5642451970
 34     -0.3326910280     6.6544886810    11.6675851600
 34      3.0414075270     6.8562778160    11.5713978480
 34     -1.7674094110     9.2425630810    11.6703415470
 34      1.5313412970     9.4926215640    11.5800069460
 34      4.7561282260     9.6274725870    11.7190521810
 34      4.2589736140     0.7585888430     5.0497759990
 52      7.7494159380     1.1017757630     5.3258201410
 34      2.7170533300     3.2798903680     5.0424406910
 34      6.0645876600     3.4517933960     5.0179987400
 34      1.2153453310     5.8223399880     5.0407901250
 34      4.5154577930     6.0025371930     4.9939050080
 34      7.8233416660     5.9908721850     5.1126976120
 34     -0.1961954940     8.4329635670     5.0463503290
 52      3.0650367980     8.6727730630     5.2168837870
 34      6.1773141930     8.8472948470     5.1048274190
 CONVCOORD
          71           1
 74     -0.0671368390     1.7435244480     3.2535317620
 74      2.6919614390     1.5360266480     3.2657247560
 74      5.9885773930     1.7060176810     3.2227565010
 74      9.1006423110     1.8668428550     3.1986039760
 74     -1.4934238130     4.2022436600     3.2665192800
 74      1.1682057830     4.0857724270     3.2564554690
 74      4.4352700540     4.2382633910     3.2436530270
 74      7.6537428240     4.2009602020     3.2339191670
 74     -2.8261364950     6.9255388120     3.2361867650
 74     -0.2863725240     6.6923037180     3.2546828190
 74      2.9136197750     6.8065457910     3.2324243190
 74      6.0813905730     6.8998558490     3.2537444850
 74     -4.2756556560     9.4659977890     3.2521695310
 74     -1.6885447390     9.2823415440     3.2631469840
 74      1.4929395860     9.4711581390     3.1976125800
 74      4.5719682040     9.6881331140     3.2173400900
 74      1.2437045720     0.7440395720     9.8501568250
 74      4.3007762700     0.7791417020     9.8385812660
 74      7.6939006750     1.0149511760     9.8519686540
 74     10.3961779910     1.0376804640     9.8979934900
 74     -0.2712010360     3.3332548380     9.8596542790
 74      2.7818016560     3.3351961780     9.8517443210
 74      6.3077828580     3.6108993120     9.8721689800
 74      8.9690301770     3.4812173440     9.9135608850
 74     -1.7416959680     5.8380919670     9.8464276250
 74      1.3210539960     5.8817594530     9.8580425780
 74      4.7041007810     6.1379521530     9.8191810970
 74      7.5167222860     6.0093126540     9.9444848900
 74     -3.1523083200     8.4061903730     9.8829974110
 74     -0.1339138640     8.4667366870     9.8472944110
 74      3.1121321330     8.6551693020     9.8510615920
 74      6.1043432480     8.6204778920     9.8203439110
 34      2.6395932370     1.5230397460     8.0361516710
 34      6.0800856200     1.8036435280     8.1262067680
 34      1.1314056070     4.0759306530     8.0135935330
 52      4.5618709110     4.2483623940     7.8984670920
 34     -0.3530079540     6.6415094760     8.0089845780
 52      2.9708493650     6.8210963040     7.8729720980
 34      6.4277689090     6.9043574240     7.9482989790
 34     -1.8034819250     9.2152539030     8.0192989270
 34      1.5046206330     9.4915029660     8.1273200740
 34      4.7666936330     9.8002036340     7.9926319690
 34      4.2556056190     0.7570574390     1.4767889120
 34      7.6715742710     1.0240848270     1.3762869730
 34      2.7288763570     3.2841966660     1.4844338900
 34      6.0596011750     3.4542884940     1.4614770250
 34      1.2260733620     5.8301263560     1.4679127470
 34      4.5193564650     6.0105665070     1.4884340770
 34      7.7852379580     6.0110057130     1.3609845510
 34     -0.1927925540     8.4319189550     1.4607698780
 34      3.0566334010     8.6311900980     1.4833264780
 34      6.1812608840     8.8069900640     1.3922579180
 34      2.6599006550     1.5157044060    11.6568149100
 34      6.0762672840     1.8037901370    11.5688248840
 34      1.1375858750     4.0783092990    11.7035445310
 34      4.6223754730     4.3546307560    11.5642451970
 34     -0.3326910280     6.6544886810    11.6675851600
 34      3.0414075270     6.8562778160    11.5713978480
 34     -1.7674094110     9.2425630810    11.6703415470
 34      1.5313412970     9.4926215640    11.5800069460
 34      4.7561282260     9.6274725870    11.7190521810
 34      4.2589736140     0.7585888430     5.0497759990
 52      7.7494159380     1.1017757630     5.3258201410
 34      2.7170533300     3.2798903680     5.0424406910
 34      6.0645876600     3.4517933960     5.0179987400
 34      1.2153453310     5.8223399880     5.0407901250
 34      4.5154577930     6.0025371930     4.9939050080
 34      7.8233416660     5.9908721850     5.1126976120
 34     -0.1961954940     8.4329635670     5.0463503290
 52      3.0650367980     8.6727730630     5.2168837870
 34      6.1773141930     8.8472948470     5.1048274190
 RECIP-PRIMVEC
    0.0844351335    0.0487486471   -0.0000000000

    0.0000000000    0.0974972941    0.0000000000

    0.0000000000   -0.0000000000    0.0763814394

 RECIP-CONVVEC
    0.0844351335    0.0487486471   -0.0000000000

    0.0000000000    0.0974972941    0.0000000000

    0.0000000000   -0.0000000000    0.0763814394

 WIGNER-SEITZ-PRIMCELL
           4
 -0.5921706E+01 -0.3418898E+01 -0.6546093E+01  -0.5000000E+00 -0.8660254E+00  0.7937100E-16
 -0.0000000E+00 -0.6837797E+01 -0.6546093E+01  -0.5000000E+00 -0.8660254E+00  0.7937100E-16
  0.0000000E+00 -0.6837797E+01  0.6546093E+01  -0.5000000E+00 -0.8660254E+00  0.7937100E-16
 -0.5921706E+01 -0.3418898E+01  0.6546093E+01  -0.5000000E+00 -0.8660254E+00  0.7937100E-16
           4
 -0.5921706E+01  0.3418898E+01  0.6546093E+01  -0.1000000E+01  0.0000000E+00  0.0000000E+00
 -0.5921706E+01  0.3418898E+01 -0.6546093E+01  -0.1000000E+01  0.0000000E+00  0.0000000E+00
 -0.5921706E+01 -0.3418898E+01 -0.6546093E+01  -0.1000000E+01  0.0000000E+00  0.0000000E+00
 -0.5921706E+01 -0.3418898E+01  0.6546093E+01  -0.1000000E+01  0.0000000E+00  0.0000000E+00
           4
 -0.0000000E+00 -0.6837797E+01 -0.6546093E+01   0.5000000E+00 -0.8660254E+00  0.1472113E-15
  0.5921706E+01 -0.3418898E+01 -0.6546093E+01   0.5000000E+00 -0.8660254E+00  0.1472113E-15
  0.5921706E+01 -0.3418898E+01  0.6546093E+01   0.5000000E+00 -0.8660254E+00  0.1472113E-15
  0.0000000E+00 -0.6837797E+01  0.6546093E+01   0.5000000E+00 -0.8660254E+00  0.1472113E-15
           6
 -0.5921706E+01 -0.3418898E+01 -0.6546093E+01  -0.3509597E-15  0.0000000E+00 -0.1000000E+01
 -0.5921706E+01  0.3418898E+01 -0.6546093E+01  -0.3509597E-15  0.0000000E+00 -0.1000000E+01
  0.0000000E+00  0.6837797E+01 -0.6546093E+01  -0.3509597E-15  0.0000000E+00 -0.1000000E+01
  0.5921706E+01  0.3418898E+01 -0.6546093E+01  -0.3509597E-15  0.0000000E+00 -0.1000000E+01
  0.5921706E+01 -0.3418898E+01 -0.6546093E+01  -0.3509597E-15  0.0000000E+00 -0.1000000E+01
 -0.0000000E+00 -0.6837797E+01 -0.6546093E+01  -0.3509597E-15  0.0000000E+00 -0.1000000E+01
           6
  0.0000000E+00 -0.6837797E+01  0.6546093E+01  -0.3509597E-15 -0.0000000E+00  0.1000000E+01
  0.5921706E+01 -0.3418898E+01  0.6546093E+01  -0.3509597E-15 -0.0000000E+00  0.1000000E+01
  0.5921706E+01  0.3418898E+01  0.6546093E+01  -0.3509597E-15 -0.0000000E+00  0.1000000E+01
 -0.0000000E+00  0.6837797E+01  0.6546093E+01  -0.3509597E-15 -0.0000000E+00  0.1000000E+01
 -0.5921706E+01  0.3418898E+01  0.6546093E+01  -0.3509597E-15 -0.0000000E+00  0.1000000E+01
 -0.5921706E+01 -0.3418898E+01  0.6546093E+01  -0.3509597E-15 -0.0000000E+00  0.1000000E+01
           4
 -0.5921706E+01  0.3418898E+01  0.6546093E+01  -0.5000000E+00  0.8660254E+00  0.0000000E+00
 -0.0000000E+00  0.6837797E+01  0.6546093E+01  -0.5000000E+00  0.8660254E+00  0.0000000E+00
 -0.0000000E+00  0.6837797E+01 -0.6546093E+01  -0.5000000E+00  0.8660254E+00  0.0000000E+00
 -0.5921706E+01  0.3418898E+01 -0.6546093E+01  -0.5000000E+00  0.8660254E+00  0.0000000E+00
           4
  0.5921706E+01 -0.3418898E+01 -0.6546093E+01   0.1000000E+01  0.1298925E-15 -0.6784035E-16
  0.5921706E+01  0.3418898E+01 -0.6546093E+01   0.1000000E+01  0.1298925E-15 -0.6784035E-16
  0.5921706E+01  0.3418898E+01  0.6546093E+01   0.1000000E+01  0.1298925E-15 -0.6784035E-16
  0.5921706E+01 -0.3418898E+01  0.6546093E+01   0.1000000E+01  0.1298925E-15 -0.6784035E-16
           4
 -0.0000000E+00  0.6837797E+01  0.6546093E+01   0.5000000E+00  0.8660254E+00 -0.1702727E-15
  0.5921706E+01  0.3418898E+01  0.6546093E+01   0.5000000E+00  0.8660254E+00 -0.1702727E-15
  0.5921706E+01  0.3418898E+01 -0.6546093E+01   0.5000000E+00  0.8660254E+00 -0.1702727E-15
 -0.0000000E+00  0.6837797E+01 -0.6546093E+01   0.5000000E+00  0.8660254E+00 -0.1702727E-15
 WIGNER-SEITZ-PRIMCELL_END
 WIGNER-SEITZ-CONVCELL
           4
 -0.5921706E+01 -0.3418898E+01 -0.6546093E+01  -0.5000000E+00 -0.8660254E+00  0.7937100E-16
 -0.0000000E+00 -0.6837797E+01 -0.6546093E+01  -0.5000000E+00 -0.8660254E+00  0.7937100E-16
  0.0000000E+00 -0.6837797E+01  0.6546093E+01  -0.5000000E+00 -0.8660254E+00  0.7937100E-16
 -0.5921706E+01 -0.3418898E+01  0.6546093E+01  -0.5000000E+00 -0.8660254E+00  0.7937100E-16
           4
 -0.5921706E+01  0.3418898E+01  0.6546093E+01  -0.1000000E+01  0.0000000E+00  0.0000000E+00
 -0.5921706E+01  0.3418898E+01 -0.6546093E+01  -0.1000000E+01  0.0000000E+00  0.0000000E+00
 -0.5921706E+01 -0.3418898E+01 -0.6546093E+01  -0.1000000E+01  0.0000000E+00  0.0000000E+00
 -0.5921706E+01 -0.3418898E+01  0.6546093E+01  -0.1000000E+01  0.0000000E+00  0.0000000E+00
           4
 -0.0000000E+00 -0.6837797E+01 -0.6546093E+01   0.5000000E+00 -0.8660254E+00  0.1472113E-15
  0.5921706E+01 -0.3418898E+01 -0.6546093E+01   0.5000000E+00 -0.8660254E+00  0.1472113E-15
  0.5921706E+01 -0.3418898E+01  0.6546093E+01   0.5000000E+00 -0.8660254E+00  0.1472113E-15
  0.0000000E+00 -0.6837797E+01  0.6546093E+01   0.5000000E+00 -0.8660254E+00  0.1472113E-15
           6
 -0.5921706E+01 -0.3418898E+01 -0.6546093E+01  -0.3509597E-15  0.0000000E+00 -0.1000000E+01
 -0.5921706E+01  0.3418898E+01 -0.6546093E+01  -0.3509597E-15  0.0000000E+00 -0.1000000E+01
  0.0000000E+00  0.6837797E+01 -0.6546093E+01  -0.3509597E-15  0.0000000E+00 -0.1000000E+01
  0.5921706E+01  0.3418898E+01 -0.6546093E+01  -0.3509597E-15  0.0000000E+00 -0.1000000E+01
  0.5921706E+01 -0.3418898E+01 -0.6546093E+01  -0.3509597E-15  0.0000000E+00 -0.1000000E+01
 -0.0000000E+00 -0.6837797E+01 -0.6546093E+01  -0.3509597E-15  0.0000000E+00 -0.1000000E+01
           6
  0.0000000E+00 -0.6837797E+01  0.6546093E+01  -0.3509597E-15 -0.0000000E+00  0.1000000E+01
  0.5921706E+01 -0.3418898E+01  0.6546093E+01  -0.3509597E-15 -0.0000000E+00  0.1000000E+01
  0.5921706E+01  0.3418898E+01  0.6546093E+01  -0.3509597E-15 -0.0000000E+00  0.1000000E+01
 -0.0000000E+00  0.6837797E+01  0.6546093E+01  -0.3509597E-15 -0.0000000E+00  0.1000000E+01
 -0.5921706E+01  0.3418898E+01  0.6546093E+01  -0.3509597E-15 -0.0000000E+00  0.1000000E+01
 -0.5921706E+01 -0.3418898E+01  0.6546093E+01  -0.3509597E-15 -0.0000000E+00  0.1000000E+01
           4
 -0.5921706E+01  0.3418898E+01  0.6546093E+01  -0.5000000E+00  0.8660254E+00  0.0000000E+00
 -0.0000000E+00  0.6837797E+01  0.6546093E+01  -0.5000000E+00  0.8660254E+00  0.0000000E+00
 -0.0000000E+00  0.6837797E+01 -0.6546093E+01  -0.5000000E+00  0.8660254E+00  0.0000000E+00
 -0.5921706E+01  0.3418898E+01 -0.6546093E+01  -0.5000000E+00  0.8660254E+00  0.0000000E+00
           4
  0.5921706E+01 -0.3418898E+01 -0.6546093E+01   0.1000000E+01  0.1298925E-15 -0.6784035E-16
  0.5921706E+01  0.3418898E+01 -0.6546093E+01   0.1000000E+01  0.1298925E-15 -0.6784035E-16
  0.5921706E+01  0.3418898E+01  0.6546093E+01   0.1000000E+01  0.1298925E-15 -0.6784035E-16
  0.5921706E+01 -0.3418898E+01  0.6546093E+01   0.1000000E+01  0.1298925E-15 -0.6784035E-16
           4
 -0.0000000E+00  0.6837797E+01  0.6546093E+01   0.5000000E+00  0.8660254E+00 -0.1702727E-15
  0.5921706E+01  0.3418898E+01  0.6546093E+01   0.5000000E+00  0.8660254E+00 -0.1702727E-15
  0.5921706E+01  0.3418898E+01 -0.6546093E+01   0.5000000E+00  0.8660254E+00 -0.1702727E-15
 -0.0000000E+00  0.6837797E+01 -0.6546093E+01   0.5000000E+00  0.8660254E+00 -0.1702727E-15
 WIGNER-SEITZ-CONVCELL_END
 BRILLOUIN-ZONE-PRIMCELL
           4
 -0.5629009E-01  0.0000000E+00 -0.3819072E-01  -0.8660254E+00 -0.5000000E+00 -0.0000000E+00
 -0.2814504E-01 -0.4874865E-01 -0.3819072E-01  -0.8660254E+00 -0.5000000E+00 -0.0000000E+00
 -0.2814504E-01 -0.4874865E-01  0.3819072E-01  -0.8660254E+00 -0.5000000E+00 -0.0000000E+00
 -0.5629009E-01 -0.0000000E+00  0.3819072E-01  -0.8660254E+00 -0.5000000E+00 -0.0000000E+00
           4
 -0.5629009E-01  0.1077672E-16  0.3819072E-01  -0.8660254E+00  0.5000000E+00  0.0000000E+00
 -0.2814504E-01  0.4874865E-01  0.3819072E-01  -0.8660254E+00  0.5000000E+00  0.0000000E+00
 -0.2814504E-01  0.4874865E-01 -0.3819072E-01  -0.8660254E+00  0.5000000E+00  0.0000000E+00
 -0.5629009E-01  0.0000000E+00 -0.3819072E-01  -0.8660254E+00  0.5000000E+00  0.0000000E+00
           4
 -0.2814504E-01 -0.4874865E-01 -0.3819072E-01  -0.0000000E+00 -0.1000000E+01 -0.0000000E+00
  0.2814504E-01 -0.4874865E-01 -0.3819072E-01  -0.0000000E+00 -0.1000000E+01 -0.0000000E+00
  0.2814504E-01 -0.4874865E-01  0.3819072E-01  -0.0000000E+00 -0.1000000E+01 -0.0000000E+00
 -0.2814504E-01 -0.4874865E-01  0.3819072E-01  -0.0000000E+00 -0.1000000E+01 -0.0000000E+00
           6
 -0.5629009E-01  0.0000000E+00 -0.3819072E-01   0.0000000E+00  0.3160864E-15 -0.1000000E+01
 -0.2814504E-01  0.4874865E-01 -0.3819072E-01   0.0000000E+00  0.3160864E-15 -0.1000000E+01
  0.2814504E-01  0.4874865E-01 -0.3819072E-01   0.0000000E+00  0.3160864E-15 -0.1000000E+01
  0.5629009E-01 -0.0000000E+00 -0.3819072E-01   0.0000000E+00  0.3160864E-15 -0.1000000E+01
  0.2814504E-01 -0.4874865E-01 -0.3819072E-01   0.0000000E+00  0.3160864E-15 -0.1000000E+01
 -0.2814504E-01 -0.4874865E-01 -0.3819072E-01   0.0000000E+00  0.3160864E-15 -0.1000000E+01
           6
 -0.2814504E-01 -0.4874865E-01  0.3819072E-01  -0.0000000E+00  0.3160864E-15  0.1000000E+01
  0.2814504E-01 -0.4874865E-01  0.3819072E-01  -0.0000000E+00  0.3160864E-15  0.1000000E+01
  0.5629009E-01  0.0000000E+00  0.3819072E-01  -0.0000000E+00  0.3160864E-15  0.1000000E+01
  0.2814504E-01  0.4874865E-01  0.3819072E-01  -0.0000000E+00  0.3160864E-15  0.1000000E+01
 -0.2814504E-01  0.4874865E-01  0.3819072E-01  -0.0000000E+00  0.3160864E-15  0.1000000E+01
 -0.5629009E-01 -0.0000000E+00  0.3819072E-01  -0.0000000E+00  0.3160864E-15  0.1000000E+01
           4
 -0.2814504E-01  0.4874865E-01  0.3819072E-01   0.0000000E+00  0.1000000E+01  0.0000000E+00
  0.2814504E-01  0.4874865E-01  0.3819072E-01   0.0000000E+00  0.1000000E+01  0.0000000E+00
  0.2814504E-01  0.4874865E-01 -0.3819072E-01   0.0000000E+00  0.1000000E+01  0.0000000E+00
 -0.2814504E-01  0.4874865E-01 -0.3819072E-01   0.0000000E+00  0.1000000E+01  0.0000000E+00
           4
  0.2814504E-01 -0.4874865E-01 -0.3819072E-01   0.8660254E+00 -0.5000000E+00 -0.0000000E+00
  0.5629009E-01  0.0000000E+00 -0.3819072E-01   0.8660254E+00 -0.5000000E+00 -0.0000000E+00
  0.5629009E-01  0.0000000E+00  0.3819072E-01   0.8660254E+00 -0.5000000E+00 -0.0000000E+00
  0.2814504E-01 -0.4874865E-01  0.3819072E-01   0.8660254E+00 -0.5000000E+00 -0.0000000E+00
           4
  0.2814504E-01  0.4874865E-01  0.3819072E-01   0.8660254E+00  0.5000000E+00 -0.7054543E-16
  0.5629009E-01  0.1077672E-16  0.3819072E-01   0.8660254E+00  0.5000000E+00 -0.7054543E-16
  0.5629009E-01  0.0000000E+00 -0.3819072E-01   0.8660254E+00  0.5000000E+00 -0.7054543E-16
  0.2814504E-01  0.4874865E-01 -0.3819072E-01   0.8660254E+00  0.5000000E+00 -0.7054543E-16
 BRILLOUIN-ZONE-PRIMCELL_END
 BRILLOUIN-ZONE-CONVCELL
           4
 -0.5629009E-01  0.0000000E+00 -0.3819072E-01  -0.8660254E+00 -0.5000000E+00 -0.0000000E+00
 -0.2814504E-01 -0.4874865E-01 -0.3819072E-01  -0.8660254E+00 -0.5000000E+00 -0.0000000E+00
 -0.2814504E-01 -0.4874865E-01  0.3819072E-01  -0.8660254E+00 -0.5000000E+00 -0.0000000E+00
 -0.5629009E-01 -0.0000000E+00  0.3819072E-01  -0.8660254E+00 -0.5000000E+00 -0.0000000E+00
           4
 -0.5629009E-01  0.1077672E-16  0.3819072E-01  -0.8660254E+00  0.5000000E+00  0.0000000E+00
 -0.2814504E-01  0.4874865E-01  0.3819072E-01  -0.8660254E+00  0.5000000E+00  0.0000000E+00
 -0.2814504E-01  0.4874865E-01 -0.3819072E-01  -0.8660254E+00  0.5000000E+00  0.0000000E+00
 -0.5629009E-01  0.0000000E+00 -0.3819072E-01  -0.8660254E+00  0.5000000E+00  0.0000000E+00
           4
 -0.2814504E-01 -0.4874865E-01 -0.3819072E-01  -0.0000000E+00 -0.1000000E+01 -0.0000000E+00
  0.2814504E-01 -0.4874865E-01 -0.3819072E-01  -0.0000000E+00 -0.1000000E+01 -0.0000000E+00
  0.2814504E-01 -0.4874865E-01  0.3819072E-01  -0.0000000E+00 -0.1000000E+01 -0.0000000E+00
 -0.2814504E-01 -0.4874865E-01  0.3819072E-01  -0.0000000E+00 -0.1000000E+01 -0.0000000E+00
           6
 -0.5629009E-01  0.0000000E+00 -0.3819072E-01   0.0000000E+00  0.3160864E-15 -0.1000000E+01
 -0.2814504E-01  0.4874865E-01 -0.3819072E-01   0.0000000E+00  0.3160864E-15 -0.1000000E+01
  0.2814504E-01  0.4874865E-01 -0.3819072E-01   0.0000000E+00  0.3160864E-15 -0.1000000E+01
  0.5629009E-01 -0.0000000E+00 -0.3819072E-01   0.0000000E+00  0.3160864E-15 -0.1000000E+01
  0.2814504E-01 -0.4874865E-01 -0.3819072E-01   0.0000000E+00  0.3160864E-15 -0.1000000E+01
 -0.2814504E-01 -0.4874865E-01 -0.3819072E-01   0.0000000E+00  0.3160864E-15 -0.1000000E+01
           6
 -0.2814504E-01 -0.4874865E-01  0.3819072E-01  -0.0000000E+00  0.3160864E-15  0.1000000E+01
  0.2814504E-01 -0.4874865E-01  0.3819072E-01  -0.0000000E+00  0.3160864E-15  0.1000000E+01
  0.5629009E-01  0.0000000E+00  0.3819072E-01  -0.0000000E+00  0.3160864E-15  0.1000000E+01
  0.2814504E-01  0.4874865E-01  0.3819072E-01  -0.0000000E+00  0.3160864E-15  0.1000000E+01
 -0.2814504E-01  0.4874865E-01  0.3819072E-01  -0.0000000E+00  0.3160864E-15  0.1000000E+01
 -0.5629009E-01 -0.0000000E+00  0.3819072E-01  -0.0000000E+00  0.3160864E-15  0.1000000E+01
           4
 -0.2814504E-01  0.4874865E-01  0.3819072E-01   0.0000000E+00  0.1000000E+01  0.0000000E+00
  0.2814504E-01  0.4874865E-01  0.3819072E-01   0.0000000E+00  0.1000000E+01  0.0000000E+00
  0.2814504E-01  0.4874865E-01 -0.3819072E-01   0.0000000E+00  0.1000000E+01  0.0000000E+00
 -0.2814504E-01  0.4874865E-01 -0.3819072E-01   0.0000000E+00  0.1000000E+01  0.0000000E+00
           4
  0.2814504E-01 -0.4874865E-01 -0.3819072E-01   0.8660254E+00 -0.5000000E+00 -0.0000000E+00
  0.5629009E-01  0.0000000E+00 -0.3819072E-01   0.8660254E+00 -0.5000000E+00 -0.0000000E+00
  0.5629009E-01  0.0000000E+00  0.3819072E-01   0.8660254E+00 -0.5000000E+00 -0.0000000E+00
  0.2814504E-01 -0.4874865E-01  0.3819072E-01   0.8660254E+00 -0.5000000E+00 -0.0000000E+00
           4
  0.2814504E-01  0.4874865E-01  0.3819072E-01   0.8660254E+00  0.5000000E+00 -0.7054543E-16
  0.5629009E-01  0.1077672E-16  0.3819072E-01   0.8660254E+00  0.5000000E+00 -0.7054543E-16
  0.5629009E-01  0.0000000E+00 -0.3819072E-01   0.8660254E+00  0.5000000E+00 -0.7054543E-16
  0.2814504E-01  0.4874865E-01 -0.3819072E-01   0.8660254E+00  0.5000000E+00 -0.7054543E-16
 BRILLOUIN-ZONE-CONVCELL_END
 ATOMS
   74   -0.0671368390    1.7435244480    3.2535317620
   74    2.6919614390    1.5360266480    3.2657247560
   74    5.9885773930    1.7060176810    3.2227565010
   74    9.1006423110    1.8668428550    3.1986039760
   74   -1.4934238130    4.2022436600    3.2665192800
   74    1.1682057830    4.0857724270    3.2564554690
   74    4.4352700540    4.2382633910    3.2436530270
   74    7.6537428240    4.2009602020    3.2339191670
   74   -2.8261364950    6.9255388120    3.2361867650
   74   -0.2863725240    6.6923037180    3.2546828190
   74    2.9136197750    6.8065457910    3.2324243190
   74    6.0813905730    6.8998558490    3.2537444850
   74   -4.2756556560    9.4659977890    3.2521695310
   74   -1.6885447390    9.2823415440    3.2631469840
   74    1.4929395860    9.4711581390    3.1976125800
   74    4.5719682040    9.6881331140    3.2173400900
   74    1.2437045720    0.7440395720    9.8501568250
   74    4.3007762700    0.7791417020    9.8385812660
   74    7.6939006750    1.0149511760    9.8519686540
   74   10.3961779910    1.0376804640    9.8979934900
   74   -0.2712010360    3.3332548380    9.8596542790
   74    2.7818016560    3.3351961780    9.8517443210
   74    6.3077828580    3.6108993120    9.8721689800
   74    8.9690301770    3.4812173440    9.9135608850
   74   -1.7416959680    5.8380919670    9.8464276250
   74    1.3210539960    5.8817594530    9.8580425780
   74    4.7041007810    6.1379521530    9.8191810970
   74    7.5167222860    6.0093126540    9.9444848900
   74   -3.1523083200    8.4061903730    9.8829974110
   74   -0.1339138640    8.4667366870    9.8472944110
   74    3.1121321330    8.6551693020    9.8510615920
   74    6.1043432480    8.6204778920    9.8203439110
   34    2.6395932370    1.5230397460    8.0361516710
   34    6.0800856200    1.8036435280    8.1262067680
   34    1.1314056070    4.0759306530    8.0135935330
   52    4.5618709110    4.2483623940    7.8984670920
   34   -0.3530079540    6.6415094760    8.0089845780
   52    2.9708493650    6.8210963040    7.8729720980
   34    6.4277689090    6.9043574240    7.9482989790
   34   -1.8034819250    9.2152539030    8.0192989270
   34    1.5046206330    9.4915029660    8.1273200740
   34    4.7666936330    9.8002036340    7.9926319690
   34    4.2556056190    0.7570574390    1.4767889120
   34    7.6715742710    1.0240848270    1.3762869730
   34    2.7288763570    3.2841966660    1.4844338900
   34    6.0596011750    3.4542884940    1.4614770250
   34    1.2260733620    5.8301263560    1.4679127470
   34    4.5193564650    6.0105665070    1.4884340770
   34    7.7852379580    6.0110057130    1.3609845510
   34   -0.1927925540    8.4319189550    1.4607698780
   34    3.0566334010    8.6311900980    1.4833264780
   34    6.1812608840    8.8069900640    1.3922579180
   34    2.6599006550    1.5157044060   11.6568149100
   34    6.0762672840    1.8037901370   11.5688248840
   34    1.1375858750    4.0783092990   11.7035445310
   34    4.6223754730    4.3546307560   11.5642451970
   34   -0.3326910280    6.6544886810   11.6675851600
   34    3.0414075270    6.8562778160   11.5713978480
   34   -1.7674094110    9.2425630810   11.6703415470
   34    1.5313412970    9.4926215640   11.5800069460
   34    4.7561282260    9.6274725870   11.7190521810
   34    4.2589736140    0.7585888430    5.0497759990
   52    7.7494159380    1.1017757630    5.3258201410
   34    2.7170533300    3.2798903680    5.0424406910
   34    6.0645876600    3.4517933960    5.0179987400
   34    1.2153453310    5.8223399880    5.0407901250
   34    4.5154577930    6.0025371930    4.9939050080
   34    7.8233416660    5.9908721850    5.1126976120
   34   -0.1961954940    8.4329635670    5.0463503290
   52    3.0650367980    8.6727730630    5.2168837870
   34    6.1773141930    8.8472948470    5.1048274190
 FRAMES
1      0.0000000000    0.0000000000    0.0000000000     11.8434111300    0.0000000000    0.0000000000
1      0.0000000000    0.0000000000    0.0000000000     -5.9217055650   10.2566949060    0.0000000000
1      0.0000000000    0.0000000000    0.0000000000      0.0000000000    0.0000000000   13.0921858400
1      0.0000000000    0.0000000000   13.0921858400     11.8434111300    0.0000000000   13.0921858400
1      0.0000000000    0.0000000000   13.0921858400     -5.9217055650   10.2566949060   13.0921858400
1     -5.9217055650   10.2566949060    0.0000000000      5.9217055650   10.2566949060    0.0000000000
1     -5.9217055650   10.2566949060    0.0000000000     -5.9217055650   10.2566949060   13.0921858400
1     -5.9217055650   10.2566949060   13.0921858400      5.9217055650   10.2566949060   13.0921858400
1     11.8434111300    0.0000000000    0.0000000000      5.9217055650   10.2566949060    0.0000000000
1     11.8434111300    0.0000000000    0.0000000000     11.8434111300    0.0000000000   13.0921858400
1     11.8434111300    0.0000000000   13.0921858400      5.9217055650   10.2566949060   13.0921858400
1      5.9217055650   10.2566949060    0.0000000000      5.9217055650   10.2566949060   13.0921858400
