 INFO
nunit      1    1    1
unit   cell
celltype   convcell
shape   parapipedal
 END_INFO
 DIM-GROUP
           3           9
 PRIMVEC
   11.8385912950    0.0000000000    0.0000000000
   -5.9192956480   10.2525208070    0.0000000000
    0.0000000000    0.0000000000   13.4785189910
 CONVVEC
   11.8385912950    0.0000000000    0.0000000000
   -5.9192956480   10.2525208070    0.0000000000
    0.0000000000    0.0000000000   13.4785189910
 PRIMCOORD
          71           1
 74     -0.0668101480     1.7205942870     3.3055785610
 74      2.7156759470     1.5418828210     3.3473447430
 74      6.0159572820     1.7042307570     3.3153136250
 74      9.1461599500     1.8967682780     3.2815544950
 74     -1.4923449100     4.2101112490     3.3299267430
 74      1.1676550800     4.0801818270     3.3363570980
 74      4.4109411510     4.2351638080     3.3326742510
 74      7.6190812200     4.1962753340     3.3559699120
 74     -2.7818193730     6.9427168460     3.3754153850
 74     -0.2591612450     6.7113797340     3.3373770910
 74      2.9018294000     6.8227040850     3.3356925700
 74      6.0995207130     6.8876209930     3.3294446650
 74     -4.2321106780     9.4704994310     3.3467453280
 74     -1.6519046990     9.2965834830     3.3384640370
 74      1.5320646940     9.5046094130     3.3051871450
 74      4.5847041190     9.6400531670     3.3356658920
 74      1.2105506770     0.7253781190    10.1594700590
 74      4.2792504310     0.7753532660    10.1465927070
 74      7.6473161400     0.9790106400    10.1535884930
 74     10.3450365840     1.0512924770    10.1243182050
 74     -0.3183598160     3.3334333090    10.1747383390
 74      2.7709587690     3.3237020180    10.1265449080
 74      6.2552157160     3.5735296750    10.1561225980
 74      8.9109423190     3.4721379130    10.2647184360
 74     -1.7602048030     5.8201719700    10.1567398400
 74      1.3255008520     5.8812667830    10.1311575470
 74      4.6876348050     6.1227801250    10.2964138280
 74      7.5108776310     5.9942154570    10.0772908880
 74     -3.1841138780     8.4171017330    10.0980373090
 74     -0.1511373880     8.4587889440    10.1454741950
 74      3.1083032640     8.6324665920    10.1497896390
 74      6.0717810990     8.6066251460    10.2062317770
 34      2.6081225030     1.4920095260     8.3347526150
 34      6.0281566640     1.7675937180     8.4269085250
 34      1.0799811600     4.0428742090     8.3128906630
 52      4.6555316720     4.3723514930     8.1736659010
 34     -0.3590489830     6.6374949710     8.3264205810
 52      3.0717119210     6.8224375780     8.1672602920
 34      6.3980941360     6.9074297160    12.0846559370
 34     -1.7952839740     9.2286364310     8.2901912740
 34      1.4964293380     9.4699944880     8.4108667160
 34      4.8113065010     9.6660397870     8.2972405140
 34      4.2957575640     0.7723191080     1.5544679230
 34      7.7265666140     1.0499477590     1.4561109350
 34      2.7123633570     3.2681233770     1.5472619200
 34      6.0438329700     3.4492805080     1.5530915560
 34      1.2207559760     5.8285446500     1.5429284950
 34      4.4925506360     6.0115091410     1.5790632270
 34      7.8735260100     5.9804177100     1.5035430630
 34     -0.1331317970     8.4698464150     1.5485427530
 34      3.0678373520     8.6389599970     1.5783745860
 34      6.2076525820     8.8430214490     1.4874554410
 34      2.6220817080     1.5213424010    11.9572739260
 34      6.0591669640     1.7936252260    11.8933592420
 34      1.1400353130     4.0850575060    11.9830299590
 34      4.5043016410     4.2203594390    11.8669011690
 34     -0.3479880450     6.6398666730    11.9761543290
 34      2.9497471310     6.8381362640    11.9074791840
 34     -1.8217391900     9.2121719950    11.9505170980
 34      1.5184509640     9.4481958310    11.8864122970
 34      4.7440078340     9.8130970460    12.0348608500
 34      4.2975687800     0.7674970170     5.1252072780
 52      7.8437321680     1.1770046870     5.4394355280
 34      2.6989939370     3.2676431050     5.1398849440
 34      6.0227405350     3.4416537200     5.1273874900
 34      1.1844912140     5.8070165740     5.1444680030
 34      4.5186431480     6.0169623040     5.0766269900
 34      7.8363948680     6.0020150010     5.2340296020
 34     -0.1562362090     8.4572400930     5.1219845190
 52      3.0747421110     8.6950071560     5.3615808630
 34      6.2416922810     8.8094230290     5.2041925990
 CONVCOORD
          71           1
 74     -0.0668101480     1.7205942870     3.3055785610
 74      2.7156759470     1.5418828210     3.3473447430
 74      6.0159572820     1.7042307570     3.3153136250
 74      9.1461599500     1.8967682780     3.2815544950
 74     -1.4923449100     4.2101112490     3.3299267430
 74      1.1676550800     4.0801818270     3.3363570980
 74      4.4109411510     4.2351638080     3.3326742510
 74      7.6190812200     4.1962753340     3.3559699120
 74     -2.7818193730     6.9427168460     3.3754153850
 74     -0.2591612450     6.7113797340     3.3373770910
 74      2.9018294000     6.8227040850     3.3356925700
 74      6.0995207130     6.8876209930     3.3294446650
 74     -4.2321106780     9.4704994310     3.3467453280
 74     -1.6519046990     9.2965834830     3.3384640370
 74      1.5320646940     9.5046094130     3.3051871450
 74      4.5847041190     9.6400531670     3.3356658920
 74      1.2105506770     0.7253781190    10.1594700590
 74      4.2792504310     0.7753532660    10.1465927070
 74      7.6473161400     0.9790106400    10.1535884930
 74     10.3450365840     1.0512924770    10.1243182050
 74     -0.3183598160     3.3334333090    10.1747383390
 74      2.7709587690     3.3237020180    10.1265449080
 74      6.2552157160     3.5735296750    10.1561225980
 74      8.9109423190     3.4721379130    10.2647184360
 74     -1.7602048030     5.8201719700    10.1567398400
 74      1.3255008520     5.8812667830    10.1311575470
 74      4.6876348050     6.1227801250    10.2964138280
 74      7.5108776310     5.9942154570    10.0772908880
 74     -3.1841138780     8.4171017330    10.0980373090
 74     -0.1511373880     8.4587889440    10.1454741950
 74      3.1083032640     8.6324665920    10.1497896390
 74      6.0717810990     8.6066251460    10.2062317770
 34      2.6081225030     1.4920095260     8.3347526150
 34      6.0281566640     1.7675937180     8.4269085250
 34      1.0799811600     4.0428742090     8.3128906630
 52      4.6555316720     4.3723514930     8.1736659010
 34     -0.3590489830     6.6374949710     8.3264205810
 52      3.0717119210     6.8224375780     8.1672602920
 34      6.3980941360     6.9074297160    12.0846559370
 34     -1.7952839740     9.2286364310     8.2901912740
 34      1.4964293380     9.4699944880     8.4108667160
 34      4.8113065010     9.6660397870     8.2972405140
 34      4.2957575640     0.7723191080     1.5544679230
 34      7.7265666140     1.0499477590     1.4561109350
 34      2.7123633570     3.2681233770     1.5472619200
 34      6.0438329700     3.4492805080     1.5530915560
 34      1.2207559760     5.8285446500     1.5429284950
 34      4.4925506360     6.0115091410     1.5790632270
 34      7.8735260100     5.9804177100     1.5035430630
 34     -0.1331317970     8.4698464150     1.5485427530
 34      3.0678373520     8.6389599970     1.5783745860
 34      6.2076525820     8.8430214490     1.4874554410
 34      2.6220817080     1.5213424010    11.9572739260
 34      6.0591669640     1.7936252260    11.8933592420
 34      1.1400353130     4.0850575060    11.9830299590
 34      4.5043016410     4.2203594390    11.8669011690
 34     -0.3479880450     6.6398666730    11.9761543290
 34      2.9497471310     6.8381362640    11.9074791840
 34     -1.8217391900     9.2121719950    11.9505170980
 34      1.5184509640     9.4481958310    11.8864122970
 34      4.7440078340     9.8130970460    12.0348608500
 34      4.2975687800     0.7674970170     5.1252072780
 52      7.8437321680     1.1770046870     5.4394355280
 34      2.6989939370     3.2676431050     5.1398849440
 34      6.0227405350     3.4416537200     5.1273874900
 34      1.1844912140     5.8070165740     5.1444680030
 34      4.5186431480     6.0169623040     5.0766269900
 34      7.8363948680     6.0020150010     5.2340296020
 34     -0.1562362090     8.4572400930     5.1219845190
 52      3.0747421110     8.6950071560     5.3615808630
 34      6.2416922810     8.8094230290     5.2041925990
 RECIP-PRIMVEC
    0.0844695095    0.0487684941   -0.0000000000

    0.0000000000    0.0975369881    0.0000000000

    0.0000000000   -0.0000000000    0.0741921275

 RECIP-CONVVEC
    0.0844695095    0.0487684941   -0.0000000000

    0.0000000000    0.0975369881    0.0000000000

    0.0000000000   -0.0000000000    0.0741921275

 WIGNER-SEITZ-PRIMCELL
           4
 -0.5919296E+01 -0.3417507E+01 -0.6739259E+01  -0.5000000E+00 -0.8660254E+00  0.7712739E-16
  0.5000006E-09 -0.6835014E+01 -0.6739259E+01  -0.5000000E+00 -0.8660254E+00  0.7712739E-16
  0.5000006E-09 -0.6835014E+01  0.6739259E+01  -0.5000000E+00 -0.8660254E+00  0.7712739E-16
 -0.5919296E+01 -0.3417507E+01  0.6739259E+01  -0.5000000E+00 -0.8660254E+00  0.7712739E-16
           4
 -0.5919296E+01  0.3417507E+01  0.6739259E+01  -0.1000000E+01  0.0000000E+00  0.0000000E+00
 -0.5919296E+01  0.3417507E+01 -0.6739259E+01  -0.1000000E+01  0.0000000E+00  0.0000000E+00
 -0.5919296E+01 -0.3417507E+01 -0.6739259E+01  -0.1000000E+01  0.0000000E+00  0.0000000E+00
 -0.5919296E+01 -0.3417507E+01  0.6739259E+01  -0.1000000E+01  0.0000000E+00  0.0000000E+00
           4
  0.5000006E-09 -0.6835014E+01 -0.6739259E+01   0.5000000E+00 -0.8660254E+00 -0.0000000E+00
  0.5919296E+01 -0.3417507E+01 -0.6739259E+01   0.5000000E+00 -0.8660254E+00 -0.0000000E+00
  0.5919296E+01 -0.3417507E+01  0.6739259E+01   0.5000000E+00 -0.8660254E+00 -0.0000000E+00
  0.5000006E-09 -0.6835014E+01  0.6739259E+01   0.5000000E+00 -0.8660254E+00 -0.0000000E+00
           6
 -0.5919296E+01 -0.3417507E+01 -0.6739259E+01  -0.1756227E-15  0.0000000E+00 -0.1000000E+01
 -0.5919296E+01  0.3417507E+01 -0.6739259E+01  -0.1756227E-15  0.0000000E+00 -0.1000000E+01
 -0.4999984E-09  0.6835014E+01 -0.6739259E+01  -0.1756227E-15  0.0000000E+00 -0.1000000E+01
  0.5919296E+01  0.3417507E+01 -0.6739259E+01  -0.1756227E-15  0.0000000E+00 -0.1000000E+01
  0.5919296E+01 -0.3417507E+01 -0.6739259E+01  -0.1756227E-15  0.0000000E+00 -0.1000000E+01
  0.5000006E-09 -0.6835014E+01 -0.6739259E+01  -0.1756227E-15  0.0000000E+00 -0.1000000E+01
           6
  0.5000006E-09 -0.6835014E+01  0.6739259E+01  -0.3512455E-15 -0.0000000E+00  0.1000000E+01
  0.5919296E+01 -0.3417507E+01  0.6739259E+01  -0.3512455E-15 -0.0000000E+00  0.1000000E+01
  0.5919296E+01  0.3417507E+01  0.6739259E+01  -0.3512455E-15 -0.0000000E+00  0.1000000E+01
 -0.4999973E-09  0.6835014E+01  0.6739259E+01  -0.3512455E-15 -0.0000000E+00  0.1000000E+01
 -0.5919296E+01  0.3417507E+01  0.6739259E+01  -0.3512455E-15 -0.0000000E+00  0.1000000E+01
 -0.5919296E+01 -0.3417507E+01  0.6739259E+01  -0.3512455E-15 -0.0000000E+00  0.1000000E+01
           4
 -0.5919296E+01  0.3417507E+01  0.6739259E+01  -0.5000000E+00  0.8660254E+00  0.1488895E-15
 -0.4999984E-09  0.6835014E+01  0.6739259E+01  -0.5000000E+00  0.8660254E+00  0.1488895E-15
 -0.5000006E-09  0.6835014E+01 -0.6739259E+01  -0.5000000E+00  0.8660254E+00  0.1488895E-15
 -0.5919296E+01  0.3417507E+01 -0.6739259E+01  -0.5000000E+00  0.8660254E+00  0.1488895E-15
           4
  0.5919296E+01 -0.3417507E+01  0.6739259E+01   0.1000000E+01 -0.0000000E+00 -0.0000000E+00
  0.5919296E+01 -0.3417507E+01 -0.6739259E+01   0.1000000E+01 -0.0000000E+00 -0.0000000E+00
  0.5919296E+01  0.3417507E+01 -0.6739259E+01   0.1000000E+01 -0.0000000E+00 -0.0000000E+00
  0.5919296E+01  0.3417507E+01  0.6739259E+01   0.1000000E+01 -0.0000000E+00 -0.0000000E+00
           4
 -0.4999984E-09  0.6835014E+01  0.6739259E+01   0.5000000E+00  0.8660254E+00  0.4343276E-16
  0.5919296E+01  0.3417507E+01  0.6739259E+01   0.5000000E+00  0.8660254E+00  0.4343276E-16
  0.5919296E+01  0.3417507E+01 -0.6739259E+01   0.5000000E+00  0.8660254E+00  0.4343276E-16
 -0.5000006E-09  0.6835014E+01 -0.6739259E+01   0.5000000E+00  0.8660254E+00  0.4343276E-16
 WIGNER-SEITZ-PRIMCELL_END
 WIGNER-SEITZ-CONVCELL
           4
 -0.5919296E+01 -0.3417507E+01 -0.6739259E+01  -0.5000000E+00 -0.8660254E+00  0.7712739E-16
  0.5000006E-09 -0.6835014E+01 -0.6739259E+01  -0.5000000E+00 -0.8660254E+00  0.7712739E-16
  0.5000006E-09 -0.6835014E+01  0.6739259E+01  -0.5000000E+00 -0.8660254E+00  0.7712739E-16
 -0.5919296E+01 -0.3417507E+01  0.6739259E+01  -0.5000000E+00 -0.8660254E+00  0.7712739E-16
           4
 -0.5919296E+01  0.3417507E+01  0.6739259E+01  -0.1000000E+01  0.0000000E+00  0.0000000E+00
 -0.5919296E+01  0.3417507E+01 -0.6739259E+01  -0.1000000E+01  0.0000000E+00  0.0000000E+00
 -0.5919296E+01 -0.3417507E+01 -0.6739259E+01  -0.1000000E+01  0.0000000E+00  0.0000000E+00
 -0.5919296E+01 -0.3417507E+01  0.6739259E+01  -0.1000000E+01  0.0000000E+00  0.0000000E+00
           4
  0.5000006E-09 -0.6835014E+01 -0.6739259E+01   0.5000000E+00 -0.8660254E+00 -0.0000000E+00
  0.5919296E+01 -0.3417507E+01 -0.6739259E+01   0.5000000E+00 -0.8660254E+00 -0.0000000E+00
  0.5919296E+01 -0.3417507E+01  0.6739259E+01   0.5000000E+00 -0.8660254E+00 -0.0000000E+00
  0.5000006E-09 -0.6835014E+01  0.6739259E+01   0.5000000E+00 -0.8660254E+00 -0.0000000E+00
           6
 -0.5919296E+01 -0.3417507E+01 -0.6739259E+01  -0.1756227E-15  0.0000000E+00 -0.1000000E+01
 -0.5919296E+01  0.3417507E+01 -0.6739259E+01  -0.1756227E-15  0.0000000E+00 -0.1000000E+01
 -0.4999984E-09  0.6835014E+01 -0.6739259E+01  -0.1756227E-15  0.0000000E+00 -0.1000000E+01
  0.5919296E+01  0.3417507E+01 -0.6739259E+01  -0.1756227E-15  0.0000000E+00 -0.1000000E+01
  0.5919296E+01 -0.3417507E+01 -0.6739259E+01  -0.1756227E-15  0.0000000E+00 -0.1000000E+01
  0.5000006E-09 -0.6835014E+01 -0.6739259E+01  -0.1756227E-15  0.0000000E+00 -0.1000000E+01
           6
  0.5000006E-09 -0.6835014E+01  0.6739259E+01  -0.3512455E-15 -0.0000000E+00  0.1000000E+01
  0.5919296E+01 -0.3417507E+01  0.6739259E+01  -0.3512455E-15 -0.0000000E+00  0.1000000E+01
  0.5919296E+01  0.3417507E+01  0.6739259E+01  -0.3512455E-15 -0.0000000E+00  0.1000000E+01
 -0.4999973E-09  0.6835014E+01  0.6739259E+01  -0.3512455E-15 -0.0000000E+00  0.1000000E+01
 -0.5919296E+01  0.3417507E+01  0.6739259E+01  -0.3512455E-15 -0.0000000E+00  0.1000000E+01
 -0.5919296E+01 -0.3417507E+01  0.6739259E+01  -0.3512455E-15 -0.0000000E+00  0.1000000E+01
           4
 -0.5919296E+01  0.3417507E+01  0.6739259E+01  -0.5000000E+00  0.8660254E+00  0.1488895E-15
 -0.4999984E-09  0.6835014E+01  0.6739259E+01  -0.5000000E+00  0.8660254E+00  0.1488895E-15
 -0.5000006E-09  0.6835014E+01 -0.6739259E+01  -0.5000000E+00  0.8660254E+00  0.1488895E-15
 -0.5919296E+01  0.3417507E+01 -0.6739259E+01  -0.5000000E+00  0.8660254E+00  0.1488895E-15
           4
  0.5919296E+01 -0.3417507E+01  0.6739259E+01   0.1000000E+01 -0.0000000E+00 -0.0000000E+00
  0.5919296E+01 -0.3417507E+01 -0.6739259E+01   0.1000000E+01 -0.0000000E+00 -0.0000000E+00
  0.5919296E+01  0.3417507E+01 -0.6739259E+01   0.1000000E+01 -0.0000000E+00 -0.0000000E+00
  0.5919296E+01  0.3417507E+01  0.6739259E+01   0.1000000E+01 -0.0000000E+00 -0.0000000E+00
           4
 -0.4999984E-09  0.6835014E+01  0.6739259E+01   0.5000000E+00  0.8660254E+00  0.4343276E-16
  0.5919296E+01  0.3417507E+01  0.6739259E+01   0.5000000E+00  0.8660254E+00  0.4343276E-16
  0.5919296E+01  0.3417507E+01 -0.6739259E+01   0.5000000E+00  0.8660254E+00  0.4343276E-16
 -0.5000006E-09  0.6835014E+01 -0.6739259E+01   0.5000000E+00  0.8660254E+00  0.4343276E-16
 WIGNER-SEITZ-CONVCELL_END
 BRILLOUIN-ZONE-PRIMCELL
           4
 -0.5631301E-01 -0.4119452E-11 -0.3709606E-01  -0.8660254E+00 -0.5000000E+00  0.1038015E-15
 -0.2815650E-01 -0.4876849E-01 -0.3709606E-01  -0.8660254E+00 -0.5000000E+00  0.1038015E-15
 -0.2815650E-01 -0.4876849E-01  0.3709606E-01  -0.8660254E+00 -0.5000000E+00  0.1038015E-15
 -0.5631301E-01 -0.4119457E-11  0.3709606E-01  -0.8660254E+00 -0.5000000E+00  0.1038015E-15
           4
 -0.5631301E-01 -0.4119446E-11  0.3709606E-01  -0.8660254E+00  0.5000000E+00  0.0000000E+00
 -0.2815650E-01  0.4876849E-01  0.3709606E-01  -0.8660254E+00  0.5000000E+00  0.0000000E+00
 -0.2815650E-01  0.4876849E-01 -0.3709606E-01  -0.8660254E+00  0.5000000E+00  0.0000000E+00
 -0.5631301E-01 -0.4119452E-11 -0.3709606E-01  -0.8660254E+00  0.5000000E+00  0.0000000E+00
           4
 -0.2815650E-01 -0.4876849E-01 -0.3709606E-01  -0.0000000E+00 -0.1000000E+01  0.1038015E-15
  0.2815650E-01 -0.4876849E-01 -0.3709606E-01  -0.0000000E+00 -0.1000000E+01  0.1038015E-15
  0.2815650E-01 -0.4876849E-01  0.3709606E-01  -0.0000000E+00 -0.1000000E+01  0.1038015E-15
 -0.2815650E-01 -0.4876849E-01  0.3709606E-01  -0.0000000E+00 -0.1000000E+01  0.1038015E-15
           6
 -0.5631301E-01 -0.4119452E-11 -0.3709606E-01   0.0000000E+00 -0.3158291E-15 -0.1000000E+01
 -0.2815650E-01  0.4876849E-01 -0.3709606E-01   0.0000000E+00 -0.3158291E-15 -0.1000000E+01
  0.2815650E-01  0.4876849E-01 -0.3709606E-01   0.0000000E+00 -0.3158291E-15 -0.1000000E+01
  0.5631301E-01  0.4119446E-11 -0.3709606E-01   0.0000000E+00 -0.3158291E-15 -0.1000000E+01
  0.2815650E-01 -0.4876849E-01 -0.3709606E-01   0.0000000E+00 -0.3158291E-15 -0.1000000E+01
 -0.2815650E-01 -0.4876849E-01 -0.3709606E-01   0.0000000E+00 -0.3158291E-15 -0.1000000E+01
           6
 -0.2815650E-01 -0.4876849E-01  0.3709606E-01  -0.0000000E+00 -0.2368719E-15  0.1000000E+01
  0.2815650E-01 -0.4876849E-01  0.3709606E-01  -0.0000000E+00 -0.2368719E-15  0.1000000E+01
  0.5631301E-01  0.4119452E-11  0.3709606E-01  -0.0000000E+00 -0.2368719E-15  0.1000000E+01
  0.2815650E-01  0.4876849E-01  0.3709606E-01  -0.0000000E+00 -0.2368719E-15  0.1000000E+01
 -0.2815650E-01  0.4876849E-01  0.3709606E-01  -0.0000000E+00 -0.2368719E-15  0.1000000E+01
 -0.5631301E-01 -0.4119446E-11  0.3709606E-01  -0.0000000E+00 -0.2368719E-15  0.1000000E+01
           4
 -0.2815650E-01  0.4876849E-01  0.3709606E-01  -0.1232201E-15  0.1000000E+01  0.6330357E-16
  0.2815650E-01  0.4876849E-01  0.3709606E-01  -0.1232201E-15  0.1000000E+01  0.6330357E-16
  0.2815650E-01  0.4876849E-01 -0.3709606E-01  -0.1232201E-15  0.1000000E+01  0.6330357E-16
 -0.2815650E-01  0.4876849E-01 -0.3709606E-01  -0.1232201E-15  0.1000000E+01  0.6330357E-16
           4
  0.2815650E-01 -0.4876849E-01  0.3709606E-01   0.8660254E+00 -0.5000000E+00 -0.1038015E-15
  0.2815650E-01 -0.4876849E-01 -0.3709606E-01   0.8660254E+00 -0.5000000E+00 -0.1038015E-15
  0.5631301E-01  0.4119452E-11 -0.3709606E-01   0.8660254E+00 -0.5000000E+00 -0.1038015E-15
  0.5631301E-01  0.4119446E-11  0.3709606E-01   0.8660254E+00 -0.5000000E+00 -0.1038015E-15
           4
  0.5631301E-01  0.4119457E-11  0.3709606E-01   0.8660254E+00  0.5000000E+00 -0.5190076E-16
  0.5631301E-01  0.4119452E-11 -0.3709606E-01   0.8660254E+00  0.5000000E+00 -0.5190076E-16
  0.2815650E-01  0.4876849E-01 -0.3709606E-01   0.8660254E+00  0.5000000E+00 -0.5190076E-16
  0.2815650E-01  0.4876849E-01  0.3709606E-01   0.8660254E+00  0.5000000E+00 -0.5190076E-16
 BRILLOUIN-ZONE-PRIMCELL_END
 BRILLOUIN-ZONE-CONVCELL
           4
 -0.5631301E-01 -0.4119452E-11 -0.3709606E-01  -0.8660254E+00 -0.5000000E+00  0.1038015E-15
 -0.2815650E-01 -0.4876849E-01 -0.3709606E-01  -0.8660254E+00 -0.5000000E+00  0.1038015E-15
 -0.2815650E-01 -0.4876849E-01  0.3709606E-01  -0.8660254E+00 -0.5000000E+00  0.1038015E-15
 -0.5631301E-01 -0.4119457E-11  0.3709606E-01  -0.8660254E+00 -0.5000000E+00  0.1038015E-15
           4
 -0.5631301E-01 -0.4119446E-11  0.3709606E-01  -0.8660254E+00  0.5000000E+00  0.0000000E+00
 -0.2815650E-01  0.4876849E-01  0.3709606E-01  -0.8660254E+00  0.5000000E+00  0.0000000E+00
 -0.2815650E-01  0.4876849E-01 -0.3709606E-01  -0.8660254E+00  0.5000000E+00  0.0000000E+00
 -0.5631301E-01 -0.4119452E-11 -0.3709606E-01  -0.8660254E+00  0.5000000E+00  0.0000000E+00
           4
 -0.2815650E-01 -0.4876849E-01 -0.3709606E-01  -0.0000000E+00 -0.1000000E+01  0.1038015E-15
  0.2815650E-01 -0.4876849E-01 -0.3709606E-01  -0.0000000E+00 -0.1000000E+01  0.1038015E-15
  0.2815650E-01 -0.4876849E-01  0.3709606E-01  -0.0000000E+00 -0.1000000E+01  0.1038015E-15
 -0.2815650E-01 -0.4876849E-01  0.3709606E-01  -0.0000000E+00 -0.1000000E+01  0.1038015E-15
           6
 -0.5631301E-01 -0.4119452E-11 -0.3709606E-01   0.0000000E+00 -0.3158291E-15 -0.1000000E+01
 -0.2815650E-01  0.4876849E-01 -0.3709606E-01   0.0000000E+00 -0.3158291E-15 -0.1000000E+01
  0.2815650E-01  0.4876849E-01 -0.3709606E-01   0.0000000E+00 -0.3158291E-15 -0.1000000E+01
  0.5631301E-01  0.4119446E-11 -0.3709606E-01   0.0000000E+00 -0.3158291E-15 -0.1000000E+01
  0.2815650E-01 -0.4876849E-01 -0.3709606E-01   0.0000000E+00 -0.3158291E-15 -0.1000000E+01
 -0.2815650E-01 -0.4876849E-01 -0.3709606E-01   0.0000000E+00 -0.3158291E-15 -0.1000000E+01
           6
 -0.2815650E-01 -0.4876849E-01  0.3709606E-01  -0.0000000E+00 -0.2368719E-15  0.1000000E+01
  0.2815650E-01 -0.4876849E-01  0.3709606E-01  -0.0000000E+00 -0.2368719E-15  0.1000000E+01
  0.5631301E-01  0.4119452E-11  0.3709606E-01  -0.0000000E+00 -0.2368719E-15  0.1000000E+01
  0.2815650E-01  0.4876849E-01  0.3709606E-01  -0.0000000E+00 -0.2368719E-15  0.1000000E+01
 -0.2815650E-01  0.4876849E-01  0.3709606E-01  -0.0000000E+00 -0.2368719E-15  0.1000000E+01
 -0.5631301E-01 -0.4119446E-11  0.3709606E-01  -0.0000000E+00 -0.2368719E-15  0.1000000E+01
           4
 -0.2815650E-01  0.4876849E-01  0.3709606E-01  -0.1232201E-15  0.1000000E+01  0.6330357E-16
  0.2815650E-01  0.4876849E-01  0.3709606E-01  -0.1232201E-15  0.1000000E+01  0.6330357E-16
  0.2815650E-01  0.4876849E-01 -0.3709606E-01  -0.1232201E-15  0.1000000E+01  0.6330357E-16
 -0.2815650E-01  0.4876849E-01 -0.3709606E-01  -0.1232201E-15  0.1000000E+01  0.6330357E-16
           4
  0.2815650E-01 -0.4876849E-01  0.3709606E-01   0.8660254E+00 -0.5000000E+00 -0.1038015E-15
  0.2815650E-01 -0.4876849E-01 -0.3709606E-01   0.8660254E+00 -0.5000000E+00 -0.1038015E-15
  0.5631301E-01  0.4119452E-11 -0.3709606E-01   0.8660254E+00 -0.5000000E+00 -0.1038015E-15
  0.5631301E-01  0.4119446E-11  0.3709606E-01   0.8660254E+00 -0.5000000E+00 -0.1038015E-15
           4
  0.5631301E-01  0.4119457E-11  0.3709606E-01   0.8660254E+00  0.5000000E+00 -0.5190076E-16
  0.5631301E-01  0.4119452E-11 -0.3709606E-01   0.8660254E+00  0.5000000E+00 -0.5190076E-16
  0.2815650E-01  0.4876849E-01 -0.3709606E-01   0.8660254E+00  0.5000000E+00 -0.5190076E-16
  0.2815650E-01  0.4876849E-01  0.3709606E-01   0.8660254E+00  0.5000000E+00 -0.5190076E-16
 BRILLOUIN-ZONE-CONVCELL_END
 ATOMS
   74   -0.0668101480    1.7205942870    3.3055785610
   74    2.7156759470    1.5418828210    3.3473447430
   74    6.0159572820    1.7042307570    3.3153136250
   74    9.1461599500    1.8967682780    3.2815544950
   74   -1.4923449100    4.2101112490    3.3299267430
   74    1.1676550800    4.0801818270    3.3363570980
   74    4.4109411510    4.2351638080    3.3326742510
   74    7.6190812200    4.1962753340    3.3559699120
   74   -2.7818193730    6.9427168460    3.3754153850
   74   -0.2591612450    6.7113797340    3.3373770910
   74    2.9018294000    6.8227040850    3.3356925700
   74    6.0995207130    6.8876209930    3.3294446650
   74   -4.2321106780    9.4704994310    3.3467453280
   74   -1.6519046990    9.2965834830    3.3384640370
   74    1.5320646940    9.5046094130    3.3051871450
   74    4.5847041190    9.6400531670    3.3356658920
   74    1.2105506770    0.7253781190   10.1594700590
   74    4.2792504310    0.7753532660   10.1465927070
   74    7.6473161400    0.9790106400   10.1535884930
   74   10.3450365840    1.0512924770   10.1243182050
   74   -0.3183598160    3.3334333090   10.1747383390
   74    2.7709587690    3.3237020180   10.1265449080
   74    6.2552157160    3.5735296750   10.1561225980
   74    8.9109423190    3.4721379130   10.2647184360
   74   -1.7602048030    5.8201719700   10.1567398400
   74    1.3255008520    5.8812667830   10.1311575470
   74    4.6876348050    6.1227801250   10.2964138280
   74    7.5108776310    5.9942154570   10.0772908880
   74   -3.1841138780    8.4171017330   10.0980373090
   74   -0.1511373880    8.4587889440   10.1454741950
   74    3.1083032640    8.6324665920   10.1497896390
   74    6.0717810990    8.6066251460   10.2062317770
   34    2.6081225030    1.4920095260    8.3347526150
   34    6.0281566640    1.7675937180    8.4269085250
   34    1.0799811600    4.0428742090    8.3128906630
   52    4.6555316720    4.3723514930    8.1736659010
   34   -0.3590489830    6.6374949710    8.3264205810
   52    3.0717119210    6.8224375780    8.1672602920
   34    6.3980941360    6.9074297160   12.0846559370
   34   -1.7952839740    9.2286364310    8.2901912740
   34    1.4964293380    9.4699944880    8.4108667160
   34    4.8113065010    9.6660397870    8.2972405140
   34    4.2957575640    0.7723191080    1.5544679230
   34    7.7265666140    1.0499477590    1.4561109350
   34    2.7123633570    3.2681233770    1.5472619200
   34    6.0438329700    3.4492805080    1.5530915560
   34    1.2207559760    5.8285446500    1.5429284950
   34    4.4925506360    6.0115091410    1.5790632270
   34    7.8735260100    5.9804177100    1.5035430630
   34   -0.1331317970    8.4698464150    1.5485427530
   34    3.0678373520    8.6389599970    1.5783745860
   34    6.2076525820    8.8430214490    1.4874554410
   34    2.6220817080    1.5213424010   11.9572739260
   34    6.0591669640    1.7936252260   11.8933592420
   34    1.1400353130    4.0850575060   11.9830299590
   34    4.5043016410    4.2203594390   11.8669011690
   34   -0.3479880450    6.6398666730   11.9761543290
   34    2.9497471310    6.8381362640   11.9074791840
   34   -1.8217391900    9.2121719950   11.9505170980
   34    1.5184509640    9.4481958310   11.8864122970
   34    4.7440078340    9.8130970460   12.0348608500
   34    4.2975687800    0.7674970170    5.1252072780
   52    7.8437321680    1.1770046870    5.4394355280
   34    2.6989939370    3.2676431050    5.1398849440
   34    6.0227405350    3.4416537200    5.1273874900
   34    1.1844912140    5.8070165740    5.1444680030
   34    4.5186431480    6.0169623040    5.0766269900
   34    7.8363948680    6.0020150010    5.2340296020
   34   -0.1562362090    8.4572400930    5.1219845190
   52    3.0747421110    8.6950071560    5.3615808630
   34    6.2416922810    8.8094230290    5.2041925990
 FRAMES
1      0.0000000000    0.0000000000    0.0000000000     11.8385912950    0.0000000000    0.0000000000
1      0.0000000000    0.0000000000    0.0000000000     -5.9192956480   10.2525208070    0.0000000000
1      0.0000000000    0.0000000000    0.0000000000      0.0000000000    0.0000000000   13.4785189910
1      0.0000000000    0.0000000000   13.4785189910     11.8385912950    0.0000000000   13.4785189910
1      0.0000000000    0.0000000000   13.4785189910     -5.9192956480   10.2525208070   13.4785189910
1     -5.9192956480   10.2525208070    0.0000000000      5.9192956470   10.2525208070    0.0000000000
1     -5.9192956480   10.2525208070    0.0000000000     -5.9192956480   10.2525208070   13.4785189910
1     -5.9192956480   10.2525208070   13.4785189910      5.9192956470   10.2525208070   13.4785189910
1     11.8385912950    0.0000000000    0.0000000000      5.9192956470   10.2525208070    0.0000000000
1     11.8385912950    0.0000000000    0.0000000000     11.8385912950    0.0000000000   13.4785189910
1     11.8385912950    0.0000000000   13.4785189910      5.9192956470   10.2525208070   13.4785189910
1      5.9192956470   10.2525208070    0.0000000000      5.9192956470   10.2525208070   13.4785189910
