 INFO
nunit      1    1    1
unit   cell
celltype   convcell
shape   parapipedal
 END_INFO
 DIM-GROUP
           3           9
 PRIMVEC
   11.7831225370    0.0000000000    0.0000000000
   -5.8915612690   10.2044834530    0.0000000000
    0.0000000000    0.0000000000   13.3084759250
 CONVVEC
   11.7831225370    0.0000000000    0.0000000000
   -5.8915612690   10.2044834530    0.0000000000
    0.0000000000    0.0000000000   13.3084759250
 PRIMCOORD
          71           1
 74      0.0527472770     1.7699321340     2.8456988330
 74      2.7359270440     1.5667653640     3.2564520650
 74      6.0363863200     1.7064470750     3.2131224880
 74      9.2012344630     1.9742359290     3.1843428740
 74     -1.3640263800     4.2941484880     3.7280229980
 74      1.2244982190     4.1105012290     3.2379218000
 74      4.4053443430     4.1980697710     3.2569346410
 74      7.6652755520     4.1809157050     3.1896465890
 74     -2.7146451190     6.8974008690     3.1206266780
 74     -0.1767425200     6.7084279480     3.1932486670
 74      2.9010168160     6.7894009470     3.2837028000
 74      6.1446083130     6.8042040210     3.2476447940
 74     -4.1795362700     9.4284560990     3.2316349810
 74     -1.6086239990     9.2599323840     3.2205733630
 74      1.6170725670     9.5224428750     3.2576058840
 74      4.6617894260     9.6853289620     3.2854209600
 74      1.0699621250     0.7738888100     9.9873802990
 74      4.1461289940     0.7132963850    10.0001536330
 74      7.5544258400     0.9037052240    10.0667750630
 74     10.1255827060     1.0768678290    10.2448794580
 74     -0.5002608650     3.3898721600    10.1311913050
 74      2.7409729300     3.2732783640     9.9591495260
 74      6.2130289490     3.5892137030    10.0703075660
 74      8.7461732500     3.3796819710    11.0426531090
 74     -1.8094328730     5.5774844930    10.1949325760
 74      1.2943667060     5.8769812480    10.0027096590
 74      4.5966618570     6.1002963140     9.9256829850
 74      7.4096826800     5.8917878760    10.2971504040
 74     -3.2881414740     8.3033320320    10.0442399210
 74     -0.2528419880     8.4147996540    10.0130261660
 74      3.0542407180     8.6014805050    10.0315328270
 74      5.9457442200     8.5410020720    10.1017450390
 34      2.5328828430     1.4955653310     8.1653325240
 34      5.9990981150     1.7352779170     8.3221931520
 34      0.9581899790     4.0321716260     8.2345655300
 52      4.5007273030     4.1864103990     7.9907124420
 34     -0.5131055960     6.5167063970     8.2828913080
 34      2.8829949110     6.8357386480     8.2507272020
 52      6.6310813050     6.9017981730     8.0109264940
 34     -1.8897470220     9.1217457130     8.1818804770
 34      1.4152483920     9.3716710980     8.2497396960
 34      4.8010445250     9.9027497260     8.2758403430
 34      4.3109487860     0.7799540560     1.4587436710
 34      7.7917243520     1.0917350210     1.3675004660
 34      2.7016858280     3.2274997640     1.4092643810
 34      6.0230152930     3.4289479130     1.4422606990
 34      1.3113988700     5.8558744930     1.4203411230
 34      4.4842847770     5.9847365100     1.5272263610
 34      7.8115251940     5.9585068280     1.2851486020
 34     -0.0277716360     8.5047782560     1.4578069670
 34      3.1530175420     8.6314933770     1.5789360570
 34      6.2404258350     8.7629312710     1.3908639800
 34      2.5381611250     1.5161430560    11.7955598000
 34      5.9672837610     1.7689108760    11.7467062500
 34      1.1390508390     4.0908517490    11.7797311700
 34      4.5223574170     4.3418453210    11.6821645230
 34     -0.3158762910     6.6126869860    11.8284783120
 34      2.9790371560     6.7956972030    11.7422086040
 34     -1.8942056400     9.1489392650    11.8476443820
 34      1.4473024750     9.3281566960    11.7540463330
 34      4.6498224490     9.5980798130    12.0105198620
 34      4.3167349240     0.7549979990     5.0212935790
 52      7.8972368640     1.2385751090     5.3359680750
 34      2.7075604290     3.2516101500     5.0688193760
 34      6.0446478330     3.4447995130     5.0206714130
 34      1.1130579260     5.7796656180     5.1231960160
 34      4.4948929380     5.9579815380     5.0247578310
 34      8.0447087420     5.8947230350     5.0578308870
 34     -0.0790061980     8.4674413920     4.9915956560
 52      3.1481398910     8.6586248660     5.3175099200
 34      6.2826934110     8.6877810980     5.0825361490
 CONVCOORD
          71           1
 74      0.0527472770     1.7699321340     2.8456988330
 74      2.7359270440     1.5667653640     3.2564520650
 74      6.0363863200     1.7064470750     3.2131224880
 74      9.2012344630     1.9742359290     3.1843428740
 74     -1.3640263800     4.2941484880     3.7280229980
 74      1.2244982190     4.1105012290     3.2379218000
 74      4.4053443430     4.1980697710     3.2569346410
 74      7.6652755520     4.1809157050     3.1896465890
 74     -2.7146451190     6.8974008690     3.1206266780
 74     -0.1767425200     6.7084279480     3.1932486670
 74      2.9010168160     6.7894009470     3.2837028000
 74      6.1446083130     6.8042040210     3.2476447940
 74     -4.1795362700     9.4284560990     3.2316349810
 74     -1.6086239990     9.2599323840     3.2205733630
 74      1.6170725670     9.5224428750     3.2576058840
 74      4.6617894260     9.6853289620     3.2854209600
 74      1.0699621250     0.7738888100     9.9873802990
 74      4.1461289940     0.7132963850    10.0001536330
 74      7.5544258400     0.9037052240    10.0667750630
 74     10.1255827060     1.0768678290    10.2448794580
 74     -0.5002608650     3.3898721600    10.1311913050
 74      2.7409729300     3.2732783640     9.9591495260
 74      6.2130289490     3.5892137030    10.0703075660
 74      8.7461732500     3.3796819710    11.0426531090
 74     -1.8094328730     5.5774844930    10.1949325760
 74      1.2943667060     5.8769812480    10.0027096590
 74      4.5966618570     6.1002963140     9.9256829850
 74      7.4096826800     5.8917878760    10.2971504040
 74     -3.2881414740     8.3033320320    10.0442399210
 74     -0.2528419880     8.4147996540    10.0130261660
 74      3.0542407180     8.6014805050    10.0315328270
 74      5.9457442200     8.5410020720    10.1017450390
 34      2.5328828430     1.4955653310     8.1653325240
 34      5.9990981150     1.7352779170     8.3221931520
 34      0.9581899790     4.0321716260     8.2345655300
 52      4.5007273030     4.1864103990     7.9907124420
 34     -0.5131055960     6.5167063970     8.2828913080
 34      2.8829949110     6.8357386480     8.2507272020
 52      6.6310813050     6.9017981730     8.0109264940
 34     -1.8897470220     9.1217457130     8.1818804770
 34      1.4152483920     9.3716710980     8.2497396960
 34      4.8010445250     9.9027497260     8.2758403430
 34      4.3109487860     0.7799540560     1.4587436710
 34      7.7917243520     1.0917350210     1.3675004660
 34      2.7016858280     3.2274997640     1.4092643810
 34      6.0230152930     3.4289479130     1.4422606990
 34      1.3113988700     5.8558744930     1.4203411230
 34      4.4842847770     5.9847365100     1.5272263610
 34      7.8115251940     5.9585068280     1.2851486020
 34     -0.0277716360     8.5047782560     1.4578069670
 34      3.1530175420     8.6314933770     1.5789360570
 34      6.2404258350     8.7629312710     1.3908639800
 34      2.5381611250     1.5161430560    11.7955598000
 34      5.9672837610     1.7689108760    11.7467062500
 34      1.1390508390     4.0908517490    11.7797311700
 34      4.5223574170     4.3418453210    11.6821645230
 34     -0.3158762910     6.6126869860    11.8284783120
 34      2.9790371560     6.7956972030    11.7422086040
 34     -1.8942056400     9.1489392650    11.8476443820
 34      1.4473024750     9.3281566960    11.7540463330
 34      4.6498224490     9.5980798130    12.0105198620
 34      4.3167349240     0.7549979990     5.0212935790
 52      7.8972368640     1.2385751090     5.3359680750
 34      2.7075604290     3.2516101500     5.0688193760
 34      6.0446478330     3.4447995130     5.0206714130
 34      1.1130579260     5.7796656180     5.1231960160
 34      4.4948929380     5.9579815380     5.0247578310
 34      8.0447087420     5.8947230350     5.0578308870
 34     -0.0790061980     8.4674413920     4.9915956560
 52      3.1481398910     8.6586248660     5.3175099200
 34      6.2826934110     8.6877810980     5.0825361490
 RECIP-PRIMVEC
    0.0848671476    0.0489980705   -0.0000000000

    0.0000000000    0.0979961411    0.0000000000

    0.0000000000   -0.0000000000    0.0751400841

 RECIP-CONVVEC
    0.0848671476    0.0489980705   -0.0000000000

    0.0000000000    0.0979961411    0.0000000000

    0.0000000000   -0.0000000000    0.0751400841

 WIGNER-SEITZ-PRIMCELL
           4
 -0.5891561E+01 -0.3401494E+01  0.6654238E+01  -0.5000000E+00 -0.8660254E+00 -0.3924028E-16
 -0.5891561E+01 -0.3401494E+01 -0.6654238E+01  -0.5000000E+00 -0.8660254E+00 -0.3924028E-16
  0.4999998E-09 -0.6802989E+01 -0.6654238E+01  -0.5000000E+00 -0.8660254E+00 -0.3924028E-16
  0.4999987E-09 -0.6802989E+01  0.6654238E+01  -0.5000000E+00 -0.8660254E+00 -0.3924028E-16
           4
 -0.5891561E+01  0.3401494E+01  0.6654238E+01  -0.1000000E+01  0.0000000E+00  0.0000000E+00
 -0.5891561E+01  0.3401494E+01 -0.6654238E+01  -0.1000000E+01  0.0000000E+00  0.0000000E+00
 -0.5891561E+01 -0.3401494E+01 -0.6654238E+01  -0.1000000E+01  0.0000000E+00  0.0000000E+00
 -0.5891561E+01 -0.3401494E+01  0.6654238E+01  -0.1000000E+01  0.0000000E+00  0.0000000E+00
           4
  0.4999987E-09 -0.6802989E+01  0.6654238E+01   0.5000000E+00 -0.8660254E+00  0.7848056E-16
  0.4999998E-09 -0.6802989E+01 -0.6654238E+01   0.5000000E+00 -0.8660254E+00  0.7848056E-16
  0.5891561E+01 -0.3401494E+01 -0.6654238E+01   0.5000000E+00 -0.8660254E+00  0.7848056E-16
  0.5891561E+01 -0.3401494E+01  0.6654238E+01   0.5000000E+00 -0.8660254E+00  0.7848056E-16
           6
 -0.5891561E+01 -0.3401494E+01 -0.6654238E+01   0.1772801E-15  0.0000000E+00 -0.1000000E+01
 -0.5891561E+01  0.3401494E+01 -0.6654238E+01   0.1772801E-15  0.0000000E+00 -0.1000000E+01
 -0.4999998E-09  0.6802989E+01 -0.6654238E+01   0.1772801E-15  0.0000000E+00 -0.1000000E+01
  0.5891561E+01  0.3401494E+01 -0.6654238E+01   0.1772801E-15  0.0000000E+00 -0.1000000E+01
  0.5891561E+01 -0.3401494E+01 -0.6654238E+01   0.1772801E-15  0.0000000E+00 -0.1000000E+01
  0.4999998E-09 -0.6802989E+01 -0.6654238E+01   0.1772801E-15  0.0000000E+00 -0.1000000E+01
           6
  0.4999987E-09 -0.6802989E+01  0.6654238E+01  -0.0000000E+00 -0.0000000E+00  0.1000000E+01
  0.5891561E+01 -0.3401494E+01  0.6654238E+01  -0.0000000E+00 -0.0000000E+00  0.1000000E+01
  0.5891561E+01  0.3401494E+01  0.6654238E+01  -0.0000000E+00 -0.0000000E+00  0.1000000E+01
 -0.4999987E-09  0.6802989E+01  0.6654238E+01  -0.0000000E+00 -0.0000000E+00  0.1000000E+01
 -0.5891561E+01  0.3401494E+01  0.6654238E+01  -0.0000000E+00 -0.0000000E+00  0.1000000E+01
 -0.5891561E+01 -0.3401494E+01  0.6654238E+01  -0.0000000E+00 -0.0000000E+00  0.1000000E+01
           4
 -0.4999998E-09  0.6802989E+01  0.6654238E+01  -0.5000000E+00  0.8660254E+00  0.3924028E-16
 -0.4999998E-09  0.6802989E+01 -0.6654238E+01  -0.5000000E+00  0.8660254E+00  0.3924028E-16
 -0.5891561E+01  0.3401494E+01 -0.6654238E+01  -0.5000000E+00  0.8660254E+00  0.3924028E-16
 -0.5891561E+01  0.3401494E+01  0.6654238E+01  -0.5000000E+00  0.8660254E+00  0.3924028E-16
           4
  0.5891561E+01 -0.3401494E+01 -0.6654238E+01   0.1000000E+01  0.1305571E-15 -0.6673780E-16
  0.5891561E+01  0.3401494E+01 -0.6654238E+01   0.1000000E+01  0.1305571E-15 -0.6673780E-16
  0.5891561E+01  0.3401494E+01  0.6654238E+01   0.1000000E+01  0.1305571E-15 -0.6673780E-16
  0.5891561E+01 -0.3401494E+01  0.6654238E+01   0.1000000E+01  0.1305571E-15 -0.6673780E-16
           4
 -0.4999998E-09  0.6802989E+01  0.6654238E+01   0.5000000E+00  0.8660254E+00 -0.2749752E-16
  0.5891561E+01  0.3401494E+01  0.6654238E+01   0.5000000E+00  0.8660254E+00 -0.2749752E-16
  0.5891561E+01  0.3401494E+01 -0.6654238E+01   0.5000000E+00  0.8660254E+00 -0.2749752E-16
 -0.4999998E-09  0.6802989E+01 -0.6654238E+01   0.5000000E+00  0.8660254E+00 -0.2749752E-16
 WIGNER-SEITZ-PRIMCELL_END
 WIGNER-SEITZ-CONVCELL
           4
 -0.5891561E+01 -0.3401494E+01  0.6654238E+01  -0.5000000E+00 -0.8660254E+00 -0.3924028E-16
 -0.5891561E+01 -0.3401494E+01 -0.6654238E+01  -0.5000000E+00 -0.8660254E+00 -0.3924028E-16
  0.4999998E-09 -0.6802989E+01 -0.6654238E+01  -0.5000000E+00 -0.8660254E+00 -0.3924028E-16
  0.4999987E-09 -0.6802989E+01  0.6654238E+01  -0.5000000E+00 -0.8660254E+00 -0.3924028E-16
           4
 -0.5891561E+01  0.3401494E+01  0.6654238E+01  -0.1000000E+01  0.0000000E+00  0.0000000E+00
 -0.5891561E+01  0.3401494E+01 -0.6654238E+01  -0.1000000E+01  0.0000000E+00  0.0000000E+00
 -0.5891561E+01 -0.3401494E+01 -0.6654238E+01  -0.1000000E+01  0.0000000E+00  0.0000000E+00
 -0.5891561E+01 -0.3401494E+01  0.6654238E+01  -0.1000000E+01  0.0000000E+00  0.0000000E+00
           4
  0.4999987E-09 -0.6802989E+01  0.6654238E+01   0.5000000E+00 -0.8660254E+00  0.7848056E-16
  0.4999998E-09 -0.6802989E+01 -0.6654238E+01   0.5000000E+00 -0.8660254E+00  0.7848056E-16
  0.5891561E+01 -0.3401494E+01 -0.6654238E+01   0.5000000E+00 -0.8660254E+00  0.7848056E-16
  0.5891561E+01 -0.3401494E+01  0.6654238E+01   0.5000000E+00 -0.8660254E+00  0.7848056E-16
           6
 -0.5891561E+01 -0.3401494E+01 -0.6654238E+01   0.1772801E-15  0.0000000E+00 -0.1000000E+01
 -0.5891561E+01  0.3401494E+01 -0.6654238E+01   0.1772801E-15  0.0000000E+00 -0.1000000E+01
 -0.4999998E-09  0.6802989E+01 -0.6654238E+01   0.1772801E-15  0.0000000E+00 -0.1000000E+01
  0.5891561E+01  0.3401494E+01 -0.6654238E+01   0.1772801E-15  0.0000000E+00 -0.1000000E+01
  0.5891561E+01 -0.3401494E+01 -0.6654238E+01   0.1772801E-15  0.0000000E+00 -0.1000000E+01
  0.4999998E-09 -0.6802989E+01 -0.6654238E+01   0.1772801E-15  0.0000000E+00 -0.1000000E+01
           6
  0.4999987E-09 -0.6802989E+01  0.6654238E+01  -0.0000000E+00 -0.0000000E+00  0.1000000E+01
  0.5891561E+01 -0.3401494E+01  0.6654238E+01  -0.0000000E+00 -0.0000000E+00  0.1000000E+01
  0.5891561E+01  0.3401494E+01  0.6654238E+01  -0.0000000E+00 -0.0000000E+00  0.1000000E+01
 -0.4999987E-09  0.6802989E+01  0.6654238E+01  -0.0000000E+00 -0.0000000E+00  0.1000000E+01
 -0.5891561E+01  0.3401494E+01  0.6654238E+01  -0.0000000E+00 -0.0000000E+00  0.1000000E+01
 -0.5891561E+01 -0.3401494E+01  0.6654238E+01  -0.0000000E+00 -0.0000000E+00  0.1000000E+01
           4
 -0.4999998E-09  0.6802989E+01  0.6654238E+01  -0.5000000E+00  0.8660254E+00  0.3924028E-16
 -0.4999998E-09  0.6802989E+01 -0.6654238E+01  -0.5000000E+00  0.8660254E+00  0.3924028E-16
 -0.5891561E+01  0.3401494E+01 -0.6654238E+01  -0.5000000E+00  0.8660254E+00  0.3924028E-16
 -0.5891561E+01  0.3401494E+01  0.6654238E+01  -0.5000000E+00  0.8660254E+00  0.3924028E-16
           4
  0.5891561E+01 -0.3401494E+01 -0.6654238E+01   0.1000000E+01  0.1305571E-15 -0.6673780E-16
  0.5891561E+01  0.3401494E+01 -0.6654238E+01   0.1000000E+01  0.1305571E-15 -0.6673780E-16
  0.5891561E+01  0.3401494E+01  0.6654238E+01   0.1000000E+01  0.1305571E-15 -0.6673780E-16
  0.5891561E+01 -0.3401494E+01  0.6654238E+01   0.1000000E+01  0.1305571E-15 -0.6673780E-16
           4
 -0.4999998E-09  0.6802989E+01  0.6654238E+01   0.5000000E+00  0.8660254E+00 -0.2749752E-16
  0.5891561E+01  0.3401494E+01  0.6654238E+01   0.5000000E+00  0.8660254E+00 -0.2749752E-16
  0.5891561E+01  0.3401494E+01 -0.6654238E+01   0.5000000E+00  0.8660254E+00 -0.2749752E-16
 -0.4999998E-09  0.6802989E+01 -0.6654238E+01   0.5000000E+00  0.8660254E+00 -0.2749752E-16
 WIGNER-SEITZ-CONVCELL_END
 BRILLOUIN-ZONE-PRIMCELL
           4
 -0.5657810E-01 -0.4158314E-11 -0.3757004E-01  -0.8660254E+00 -0.5000000E+00 -0.5100588E-16
 -0.2828905E-01 -0.4899807E-01 -0.3757004E-01  -0.8660254E+00 -0.5000000E+00 -0.5100588E-16
 -0.2828905E-01 -0.4899807E-01  0.3757004E-01  -0.8660254E+00 -0.5000000E+00 -0.5100588E-16
 -0.5657810E-01 -0.4158325E-11  0.3757004E-01  -0.8660254E+00 -0.5000000E+00 -0.5100588E-16
           4
 -0.5657810E-01 -0.4158314E-11  0.3757004E-01  -0.8660254E+00  0.5000000E+00  0.5100588E-16
 -0.2828905E-01  0.4899807E-01  0.3757004E-01  -0.8660254E+00  0.5000000E+00  0.5100588E-16
 -0.2828905E-01  0.4899807E-01 -0.3757004E-01  -0.8660254E+00  0.5000000E+00  0.5100588E-16
 -0.5657810E-01 -0.4158314E-11 -0.3757004E-01  -0.8660254E+00  0.5000000E+00  0.5100588E-16
           4
 -0.2828905E-01 -0.4899807E-01 -0.3757004E-01  -0.0000000E+00 -0.1000000E+01 -0.7997407E-16
  0.2828905E-01 -0.4899807E-01 -0.3757004E-01  -0.0000000E+00 -0.1000000E+01 -0.7997407E-16
  0.2828905E-01 -0.4899807E-01  0.3757004E-01  -0.0000000E+00 -0.1000000E+01 -0.7997407E-16
 -0.2828905E-01 -0.4899807E-01  0.3757004E-01  -0.0000000E+00 -0.1000000E+01 -0.7997407E-16
           6
 -0.5657810E-01 -0.4158314E-11 -0.3757004E-01   0.0000000E+00  0.7821912E-16 -0.1000000E+01
 -0.2828905E-01  0.4899807E-01 -0.3757004E-01   0.0000000E+00  0.7821912E-16 -0.1000000E+01
  0.2828905E-01  0.4899807E-01 -0.3757004E-01   0.0000000E+00  0.7821912E-16 -0.1000000E+01
  0.5657810E-01  0.4158314E-11 -0.3757004E-01   0.0000000E+00  0.7821912E-16 -0.1000000E+01
  0.2828905E-01 -0.4899807E-01 -0.3757004E-01   0.0000000E+00  0.7821912E-16 -0.1000000E+01
 -0.2828905E-01 -0.4899807E-01 -0.3757004E-01   0.0000000E+00  0.7821912E-16 -0.1000000E+01
           6
 -0.2828905E-01 -0.4899807E-01  0.3757004E-01  -0.0000000E+00 -0.0000000E+00  0.1000000E+01
  0.2828905E-01 -0.4899807E-01  0.3757004E-01  -0.0000000E+00 -0.0000000E+00  0.1000000E+01
  0.5657810E-01  0.4158303E-11  0.3757004E-01  -0.0000000E+00 -0.0000000E+00  0.1000000E+01
  0.2828905E-01  0.4899807E-01  0.3757004E-01  -0.0000000E+00 -0.0000000E+00  0.1000000E+01
 -0.2828905E-01  0.4899807E-01  0.3757004E-01  -0.0000000E+00 -0.0000000E+00  0.1000000E+01
 -0.5657810E-01 -0.4158325E-11  0.3757004E-01  -0.0000000E+00 -0.0000000E+00  0.1000000E+01
           4
  0.2828905E-01  0.4899807E-01  0.3757004E-01   0.0000000E+00  0.1000000E+01  0.1020118E-15
  0.2828905E-01  0.4899807E-01 -0.3757004E-01   0.0000000E+00  0.1000000E+01  0.1020118E-15
 -0.2828905E-01  0.4899807E-01 -0.3757004E-01   0.0000000E+00  0.1000000E+01  0.1020118E-15
 -0.2828905E-01  0.4899807E-01  0.3757004E-01   0.0000000E+00  0.1000000E+01  0.1020118E-15
           4
  0.2828905E-01 -0.4899807E-01  0.3757004E-01   0.8660254E+00 -0.5000000E+00 -0.2040235E-15
  0.2828905E-01 -0.4899807E-01 -0.3757004E-01   0.8660254E+00 -0.5000000E+00 -0.2040235E-15
  0.5657810E-01  0.4158314E-11 -0.3757004E-01   0.8660254E+00 -0.5000000E+00 -0.2040235E-15
  0.5657810E-01  0.4158314E-11  0.3757004E-01   0.8660254E+00 -0.5000000E+00 -0.2040235E-15
           4
  0.5657810E-01  0.4158303E-11  0.3757004E-01   0.8660254E+00  0.5000000E+00  0.1020118E-15
  0.5657810E-01  0.4158314E-11 -0.3757004E-01   0.8660254E+00  0.5000000E+00  0.1020118E-15
  0.2828905E-01  0.4899807E-01 -0.3757004E-01   0.8660254E+00  0.5000000E+00  0.1020118E-15
  0.2828905E-01  0.4899807E-01  0.3757004E-01   0.8660254E+00  0.5000000E+00  0.1020118E-15
 BRILLOUIN-ZONE-PRIMCELL_END
 BRILLOUIN-ZONE-CONVCELL
           4
 -0.5657810E-01 -0.4158314E-11 -0.3757004E-01  -0.8660254E+00 -0.5000000E+00 -0.5100588E-16
 -0.2828905E-01 -0.4899807E-01 -0.3757004E-01  -0.8660254E+00 -0.5000000E+00 -0.5100588E-16
 -0.2828905E-01 -0.4899807E-01  0.3757004E-01  -0.8660254E+00 -0.5000000E+00 -0.5100588E-16
 -0.5657810E-01 -0.4158325E-11  0.3757004E-01  -0.8660254E+00 -0.5000000E+00 -0.5100588E-16
           4
 -0.5657810E-01 -0.4158314E-11  0.3757004E-01  -0.8660254E+00  0.5000000E+00  0.5100588E-16
 -0.2828905E-01  0.4899807E-01  0.3757004E-01  -0.8660254E+00  0.5000000E+00  0.5100588E-16
 -0.2828905E-01  0.4899807E-01 -0.3757004E-01  -0.8660254E+00  0.5000000E+00  0.5100588E-16
 -0.5657810E-01 -0.4158314E-11 -0.3757004E-01  -0.8660254E+00  0.5000000E+00  0.5100588E-16
           4
 -0.2828905E-01 -0.4899807E-01 -0.3757004E-01  -0.0000000E+00 -0.1000000E+01 -0.7997407E-16
  0.2828905E-01 -0.4899807E-01 -0.3757004E-01  -0.0000000E+00 -0.1000000E+01 -0.7997407E-16
  0.2828905E-01 -0.4899807E-01  0.3757004E-01  -0.0000000E+00 -0.1000000E+01 -0.7997407E-16
 -0.2828905E-01 -0.4899807E-01  0.3757004E-01  -0.0000000E+00 -0.1000000E+01 -0.7997407E-16
           6
 -0.5657810E-01 -0.4158314E-11 -0.3757004E-01   0.0000000E+00  0.7821912E-16 -0.1000000E+01
 -0.2828905E-01  0.4899807E-01 -0.3757004E-01   0.0000000E+00  0.7821912E-16 -0.1000000E+01
  0.2828905E-01  0.4899807E-01 -0.3757004E-01   0.0000000E+00  0.7821912E-16 -0.1000000E+01
  0.5657810E-01  0.4158314E-11 -0.3757004E-01   0.0000000E+00  0.7821912E-16 -0.1000000E+01
  0.2828905E-01 -0.4899807E-01 -0.3757004E-01   0.0000000E+00  0.7821912E-16 -0.1000000E+01
 -0.2828905E-01 -0.4899807E-01 -0.3757004E-01   0.0000000E+00  0.7821912E-16 -0.1000000E+01
           6
 -0.2828905E-01 -0.4899807E-01  0.3757004E-01  -0.0000000E+00 -0.0000000E+00  0.1000000E+01
  0.2828905E-01 -0.4899807E-01  0.3757004E-01  -0.0000000E+00 -0.0000000E+00  0.1000000E+01
  0.5657810E-01  0.4158303E-11  0.3757004E-01  -0.0000000E+00 -0.0000000E+00  0.1000000E+01
  0.2828905E-01  0.4899807E-01  0.3757004E-01  -0.0000000E+00 -0.0000000E+00  0.1000000E+01
 -0.2828905E-01  0.4899807E-01  0.3757004E-01  -0.0000000E+00 -0.0000000E+00  0.1000000E+01
 -0.5657810E-01 -0.4158325E-11  0.3757004E-01  -0.0000000E+00 -0.0000000E+00  0.1000000E+01
           4
  0.2828905E-01  0.4899807E-01  0.3757004E-01   0.0000000E+00  0.1000000E+01  0.1020118E-15
  0.2828905E-01  0.4899807E-01 -0.3757004E-01   0.0000000E+00  0.1000000E+01  0.1020118E-15
 -0.2828905E-01  0.4899807E-01 -0.3757004E-01   0.0000000E+00  0.1000000E+01  0.1020118E-15
 -0.2828905E-01  0.4899807E-01  0.3757004E-01   0.0000000E+00  0.1000000E+01  0.1020118E-15
           4
  0.2828905E-01 -0.4899807E-01  0.3757004E-01   0.8660254E+00 -0.5000000E+00 -0.2040235E-15
  0.2828905E-01 -0.4899807E-01 -0.3757004E-01   0.8660254E+00 -0.5000000E+00 -0.2040235E-15
  0.5657810E-01  0.4158314E-11 -0.3757004E-01   0.8660254E+00 -0.5000000E+00 -0.2040235E-15
  0.5657810E-01  0.4158314E-11  0.3757004E-01   0.8660254E+00 -0.5000000E+00 -0.2040235E-15
           4
  0.5657810E-01  0.4158303E-11  0.3757004E-01   0.8660254E+00  0.5000000E+00  0.1020118E-15
  0.5657810E-01  0.4158314E-11 -0.3757004E-01   0.8660254E+00  0.5000000E+00  0.1020118E-15
  0.2828905E-01  0.4899807E-01 -0.3757004E-01   0.8660254E+00  0.5000000E+00  0.1020118E-15
  0.2828905E-01  0.4899807E-01  0.3757004E-01   0.8660254E+00  0.5000000E+00  0.1020118E-15
 BRILLOUIN-ZONE-CONVCELL_END
 ATOMS
   74    0.0527472770    1.7699321340    2.8456988330
   74    2.7359270440    1.5667653640    3.2564520650
   74    6.0363863200    1.7064470750    3.2131224880
   74    9.2012344630    1.9742359290    3.1843428740
   74   -1.3640263800    4.2941484880    3.7280229980
   74    1.2244982190    4.1105012290    3.2379218000
   74    4.4053443430    4.1980697710    3.2569346410
   74    7.6652755520    4.1809157050    3.1896465890
   74   -2.7146451190    6.8974008690    3.1206266780
   74   -0.1767425200    6.7084279480    3.1932486670
   74    2.9010168160    6.7894009470    3.2837028000
   74    6.1446083130    6.8042040210    3.2476447940
   74   -4.1795362700    9.4284560990    3.2316349810
   74   -1.6086239990    9.2599323840    3.2205733630
   74    1.6170725670    9.5224428750    3.2576058840
   74    4.6617894260    9.6853289620    3.2854209600
   74    1.0699621250    0.7738888100    9.9873802990
   74    4.1461289940    0.7132963850   10.0001536330
   74    7.5544258400    0.9037052240   10.0667750630
   74   10.1255827060    1.0768678290   10.2448794580
   74   -0.5002608650    3.3898721600   10.1311913050
   74    2.7409729300    3.2732783640    9.9591495260
   74    6.2130289490    3.5892137030   10.0703075660
   74    8.7461732500    3.3796819710   11.0426531090
   74   -1.8094328730    5.5774844930   10.1949325760
   74    1.2943667060    5.8769812480   10.0027096590
   74    4.5966618570    6.1002963140    9.9256829850
   74    7.4096826800    5.8917878760   10.2971504040
   74   -3.2881414740    8.3033320320   10.0442399210
   74   -0.2528419880    8.4147996540   10.0130261660
   74    3.0542407180    8.6014805050   10.0315328270
   74    5.9457442200    8.5410020720   10.1017450390
   34    2.5328828430    1.4955653310    8.1653325240
   34    5.9990981150    1.7352779170    8.3221931520
   34    0.9581899790    4.0321716260    8.2345655300
   52    4.5007273030    4.1864103990    7.9907124420
   34   -0.5131055960    6.5167063970    8.2828913080
   34    2.8829949110    6.8357386480    8.2507272020
   52    6.6310813050    6.9017981730    8.0109264940
   34   -1.8897470220    9.1217457130    8.1818804770
   34    1.4152483920    9.3716710980    8.2497396960
   34    4.8010445250    9.9027497260    8.2758403430
   34    4.3109487860    0.7799540560    1.4587436710
   34    7.7917243520    1.0917350210    1.3675004660
   34    2.7016858280    3.2274997640    1.4092643810
   34    6.0230152930    3.4289479130    1.4422606990
   34    1.3113988700    5.8558744930    1.4203411230
   34    4.4842847770    5.9847365100    1.5272263610
   34    7.8115251940    5.9585068280    1.2851486020
   34   -0.0277716360    8.5047782560    1.4578069670
   34    3.1530175420    8.6314933770    1.5789360570
   34    6.2404258350    8.7629312710    1.3908639800
   34    2.5381611250    1.5161430560   11.7955598000
   34    5.9672837610    1.7689108760   11.7467062500
   34    1.1390508390    4.0908517490   11.7797311700
   34    4.5223574170    4.3418453210   11.6821645230
   34   -0.3158762910    6.6126869860   11.8284783120
   34    2.9790371560    6.7956972030   11.7422086040
   34   -1.8942056400    9.1489392650   11.8476443820
   34    1.4473024750    9.3281566960   11.7540463330
   34    4.6498224490    9.5980798130   12.0105198620
   34    4.3167349240    0.7549979990    5.0212935790
   52    7.8972368640    1.2385751090    5.3359680750
   34    2.7075604290    3.2516101500    5.0688193760
   34    6.0446478330    3.4447995130    5.0206714130
   34    1.1130579260    5.7796656180    5.1231960160
   34    4.4948929380    5.9579815380    5.0247578310
   34    8.0447087420    5.8947230350    5.0578308870
   34   -0.0790061980    8.4674413920    4.9915956560
   52    3.1481398910    8.6586248660    5.3175099200
   34    6.2826934110    8.6877810980    5.0825361490
 FRAMES
1      0.0000000000    0.0000000000    0.0000000000     11.7831225370    0.0000000000    0.0000000000
1      0.0000000000    0.0000000000    0.0000000000     -5.8915612690   10.2044834530    0.0000000000
1      0.0000000000    0.0000000000    0.0000000000      0.0000000000    0.0000000000   13.3084759250
1      0.0000000000    0.0000000000   13.3084759250     11.7831225370    0.0000000000   13.3084759250
1      0.0000000000    0.0000000000   13.3084759250     -5.8915612690   10.2044834530   13.3084759250
1     -5.8915612690   10.2044834530    0.0000000000      5.8915612680   10.2044834530    0.0000000000
1     -5.8915612690   10.2044834530    0.0000000000     -5.8915612690   10.2044834530   13.3084759250
1     -5.8915612690   10.2044834530   13.3084759250      5.8915612680   10.2044834530   13.3084759250
1     11.7831225370    0.0000000000    0.0000000000      5.8915612680   10.2044834530    0.0000000000
1     11.7831225370    0.0000000000    0.0000000000     11.7831225370    0.0000000000   13.3084759250
1     11.7831225370    0.0000000000   13.3084759250      5.8915612680   10.2044834530   13.3084759250
1      5.8915612680   10.2044834530    0.0000000000      5.8915612680   10.2044834530   13.3084759250
